R1_3_R2_4
     RDKit          3D

 39 41  0  0  0  0  0  0  0  0999 V2000
   23.7938   -8.1070   -0.9539 C   0  0  0  0  0  0  0  0  0  0  0  0
   21.5839   -8.3844   -0.0179 C   0  0  0  0  0  0  0  0  0  0  0  0
   22.5159   -8.6654   -1.0157 C   0  0  0  0  0  0  0  0  0  0  0  0
   21.9292   -7.5517    1.0463 C   0  0  0  0  0  0  0  0  0  0  0  0
   24.1422   -7.2566    0.1032 C   0  0  0  0  0  0  0  0  0  0  0  0
   23.2068   -6.9895    1.1118 C   0  0  0  0  0  0  0  0  0  0  0  0
   20.1598   -8.9694   -0.0229 C   0  0  0  0  0  0  0  0  0  0  0  0
   19.1266   -7.8220   -0.0345 C   0  0  0  0  0  0  0  0  0  0  0  0
   19.8572   -9.8672   -1.2440 C   0  0  0  0  0  0  0  0  0  0  0  0
   19.9489   -9.8304    1.2411 C   0  0  0  0  0  0  0  0  0  0  0  0
   19.2698   -7.1710   -0.9051 H   0  0  0  0  0  0  0  0  0  0  0  0
   18.1028   -8.2123   -0.0747 H   0  0  0  0  0  0  0  0  0  0  0  0
   19.1940   -7.1938    0.8604 H   0  0  0  0  0  0  0  0  0  0  0  0
   20.5265  -10.7345   -1.2832 H   0  0  0  0  0  0  0  0  0  0  0  0
   18.8318  -10.2541   -1.2054 H   0  0  0  0  0  0  0  0  0  0  0  0
   19.9580   -9.3149   -2.1856 H   0  0  0  0  0  0  0  0  0  0  0  0
   18.9525  -10.2875    1.2462 H   0  0  0  0  0  0  0  0  0  0  0  0
   20.0366   -9.2434    2.1618 H   0  0  0  0  0  0  0  0  0  0  0  0
   20.6873  -10.6392    1.2951 H   0  0  0  0  0  0  0  0  0  0  0  0
   25.6563   -5.4506    0.7397 N   0  0  0  0  0  0  0  0  0  0  0  0
   28.0097   -5.4722    0.2401 C   0  0  0  0  0  0  0  0  0  0  0  0
   26.8495   -4.7783    0.8189 C   0  0  0  0  0  0  0  0  0  0  0  0
   27.7814   -6.7149   -0.3548 C   0  0  0  0  0  0  0  0  0  0  0  0
   25.5124   -6.6779    0.1314 C   0  0  0  0  0  0  0  0  0  0  0  0
   26.5079   -7.3056   -0.4109 N   0  0  0  0  0  0  0  0  0  0  0  0
   29.2874   -4.9048    0.2802 C   0  0  0  0  0  0  0  0  0  0  0  0
   30.3594   -5.5948   -0.2837 C   0  0  0  0  0  0  0  0  0  0  0  0
   28.8653   -7.3937   -0.9154 C   0  0  0  0  0  0  0  0  0  0  0  0
   30.1485   -6.8385   -0.8809 C   0  0  0  0  0  0  0  0  0  0  0  0
   26.9369   -3.6692    1.3325 O   0  0  0  0  0  0  0  0  0  0  0  0
   24.8610   -4.9413    1.0937 H   0  0  0  0  0  0  0  0  0  0  0  0
   29.4438   -3.9350    0.7462 H   0  0  0  0  0  0  0  0  0  0  0  0
   31.5835   -5.0540   -0.2467 F   0  0  0  0  0  0  0  0  0  0  0  0
   28.7062   -8.5907   -1.5010 F   0  0  0  0  0  0  0  0  0  0  0  0
   30.9828   -7.3792   -1.3214 H   0  0  0  0  0  0  0  0  0  0  0  0
   24.5155   -8.3348   -1.7358 H   0  0  0  0  0  0  0  0  0  0  0  0
   22.2503   -9.3218   -1.8407 H   0  0  0  0  0  0  0  0  0  0  0  0
   21.2045   -7.3487    1.8313 H   0  0  0  0  0  0  0  0  0  0  0  0
   23.4585   -6.3745    1.9705 H   0  0  0  0  0  0  0  0  0  0  0  0
  7  2  1  0
  7  8  1  0
  7  9  1  0
  7 10  1  0
  8 11  1  0
  8 12  1  0
  8 13  1  0
  9 14  1  0
  9 15  1  0
  9 16  1  0
 10 17  1  0
 10 18  1  0
 10 19  1  0
 24  5  1  0
 22 20  1  0
 20 24  1  0
 24 25  2  0
 25 23  1  0
 23 21  2  0
 21 22  1  0
 23 28  1  0
 28 29  2  0
 29 27  1  0
 27 26  2  0
 26 21  1  0
 22 30  2  0
 20 31  1  0
 26 32  1  0
 27 33  1  0
 28 34  1  0
 29 35  1  0
  3  1  2  0
  1  5  1  0
  5  6  2  0
  6  4  1  0
  4  2  2  0
  2  3  1  0
  1 36  1  0
  3 37  1  0
  4 38  1  0
  6 39  1  0
M  END
$$$$
