R1_2_R2_7
     RDKit          3D

 40 42  0  0  0  0  0  0  0  0999 V2000
   23.7938   -8.1070   -0.9539 C   0  0  0  0  0  0  0  0  0  0  0  0
   21.5839   -8.3844   -0.0179 C   0  0  0  0  0  0  0  0  0  0  0  0
   22.5159   -8.6654   -1.0157 C   0  0  0  0  0  0  0  0  0  0  0  0
   21.9292   -7.5517    1.0463 C   0  0  0  0  0  0  0  0  0  0  0  0
   24.1422   -7.2566    0.1032 C   0  0  0  0  0  0  0  0  0  0  0  0
   23.2068   -6.9895    1.1118 C   0  0  0  0  0  0  0  0  0  0  0  0
   20.1976   -9.0212   -0.1133 C   0  0  0  0  0  0  0  0  0  0  0  0
   20.2923  -10.5479   -0.0014 C   0  0  0  0  0  0  0  0  0  0  0  0
   19.3757   -8.5670    0.9699 O   0  0  0  0  0  0  0  0  0  0  0  0
   19.4894   -8.6147   -1.4121 C   0  0  0  0  0  0  0  0  0  0  0  0
   20.7647  -10.8406    0.9440 H   0  0  0  0  0  0  0  0  0  0  0  0
   20.8679  -10.9909   -0.8208 H   0  0  0  0  0  0  0  0  0  0  0  0
   19.2948  -11.0027   -0.0032 H   0  0  0  0  0  0  0  0  0  0  0  0
   18.5100   -9.0003    0.8879 H   0  0  0  0  0  0  0  0  0  0  0  0
   18.4674   -9.0108   -1.4400 H   0  0  0  0  0  0  0  0  0  0  0  0
   20.0136   -8.9716   -2.3044 H   0  0  0  0  0  0  0  0  0  0  0  0
   19.4010   -7.5238   -1.4819 H   0  0  0  0  0  0  0  0  0  0  0  0
   25.6563   -5.4506    0.7397 N   0  0  0  0  0  0  0  0  0  0  0  0
   28.0097   -5.4722    0.2401 C   0  0  0  0  0  0  0  0  0  0  0  0
   26.8495   -4.7783    0.8189 C   0  0  0  0  0  0  0  0  0  0  0  0
   27.7814   -6.7149   -0.3548 C   0  0  0  0  0  0  0  0  0  0  0  0
   25.5124   -6.6779    0.1314 C   0  0  0  0  0  0  0  0  0  0  0  0
   26.5079   -7.3056   -0.4109 N   0  0  0  0  0  0  0  0  0  0  0  0
   29.2874   -4.9048    0.2802 C   0  0  0  0  0  0  0  0  0  0  0  0
   30.3594   -5.5948   -0.2837 C   0  0  0  0  0  0  0  0  0  0  0  0
   28.8653   -7.3937   -0.9154 C   0  0  0  0  0  0  0  0  0  0  0  0
   30.1485   -6.8385   -0.8809 C   0  0  0  0  0  0  0  0  0  0  0  0
   26.9369   -3.6692    1.3325 O   0  0  0  0  0  0  0  0  0  0  0  0
   24.8610   -4.9413    1.0937 H   0  0  0  0  0  0  0  0  0  0  0  0
   29.4438   -3.9350    0.7462 H   0  0  0  0  0  0  0  0  0  0  0  0
   31.3577   -5.1645   -0.2585 H   0  0  0  0  0  0  0  0  0  0  0  0
   28.6446   -8.7329   -1.5618 C   0  0  0  0  0  0  0  0  0  0  0  0
   30.9828   -7.3792   -1.3214 H   0  0  0  0  0  0  0  0  0  0  0  0
   27.9472   -8.6394   -2.4007 H   0  0  0  0  0  0  0  0  0  0  0  0
   28.2452   -9.4456   -0.8330 H   0  0  0  0  0  0  0  0  0  0  0  0
   29.5794   -9.1483   -1.9529 H   0  0  0  0  0  0  0  0  0  0  0  0
   24.5155   -8.3348   -1.7358 H   0  0  0  0  0  0  0  0  0  0  0  0
   22.2503   -9.3218   -1.8407 H   0  0  0  0  0  0  0  0  0  0  0  0
   21.2045   -7.3487    1.8313 H   0  0  0  0  0  0  0  0  0  0  0  0
   23.4585   -6.3745    1.9705 H   0  0  0  0  0  0  0  0  0  0  0  0
  7  2  1  0
  7  8  1  0
  7  9  1  0
  7 10  1  0
  8 11  1  0
  8 12  1  0
  8 13  1  0
  9 14  1  0
 10 15  1  0
 10 16  1  0
 10 17  1  0
 22  5  1  0
 20 18  1  0
 18 22  1  0
 22 23  2  0
 23 21  1  0
 21 19  2  0
 19 20  1  0
 21 26  1  0
 26 27  2  0
 27 25  1  0
 25 24  2  0
 24 19  1  0
 20 28  2  0
 18 29  1  0
 24 30  1  0
 25 31  1  0
 26 32  1  0
 27 33  1  0
 32 34  1  0
 32 35  1  0
 32 36  1  0
  3  1  2  0
  1  5  1  0
  5  6  2  0
  6  4  1  0
  4  2  2  0
  2  3  1  0
  1 37  1  0
  3 38  1  0
  4 39  1  0
  6 40  1  0
M  END
$$$$
