R1_1_R2_8
     RDKit          3D

 27 29  0  0  0  0  0  0  0  0999 V2000
   23.7938   -8.1070   -0.9539 C   0  0  0  0  0  0  0  0  0  0  0  0
   21.5839   -8.3844   -0.0179 C   0  0  0  0  0  0  0  0  0  0  0  0
   22.5159   -8.6654   -1.0157 C   0  0  0  0  0  0  0  0  0  0  0  0
   21.9292   -7.5517    1.0463 C   0  0  0  0  0  0  0  0  0  0  0  0
   24.1422   -7.2566    0.1032 C   0  0  0  0  0  0  0  0  0  0  0  0
   23.2068   -6.9895    1.1118 C   0  0  0  0  0  0  0  0  0  0  0  0
   20.5899   -8.8229   -0.0649 H   0  0  0  0  0  0  0  0  0  0  0  0
   25.6563   -5.4506    0.7397 N   0  0  0  0  0  0  0  0  0  0  0  0
   28.0097   -5.4722    0.2401 C   0  0  0  0  0  0  0  0  0  0  0  0
   26.8495   -4.7783    0.8189 C   0  0  0  0  0  0  0  0  0  0  0  0
   27.7814   -6.7149   -0.3548 C   0  0  0  0  0  0  0  0  0  0  0  0
   25.5124   -6.6779    0.1314 C   0  0  0  0  0  0  0  0  0  0  0  0
   26.5079   -7.3056   -0.4109 N   0  0  0  0  0  0  0  0  0  0  0  0
   29.2874   -4.9048    0.2802 C   0  0  0  0  0  0  0  0  0  0  0  0
   30.3594   -5.5948   -0.2837 C   0  0  0  0  0  0  0  0  0  0  0  0
   28.8653   -7.3937   -0.9154 C   0  0  0  0  0  0  0  0  0  0  0  0
   30.1485   -6.8385   -0.8809 C   0  0  0  0  0  0  0  0  0  0  0  0
   26.9369   -3.6692    1.3325 O   0  0  0  0  0  0  0  0  0  0  0  0
   24.8610   -4.9413    1.0937 H   0  0  0  0  0  0  0  0  0  0  0  0
   29.5322   -3.7130    0.8407 F   0  0  0  0  0  0  0  0  0  0  0  0
   31.3577   -5.1645   -0.2585 H   0  0  0  0  0  0  0  0  0  0  0  0
   28.7081   -8.5917   -1.4992 F   0  0  0  0  0  0  0  0  0  0  0  0
   30.9828   -7.3792   -1.3214 H   0  0  0  0  0  0  0  0  0  0  0  0
   24.5155   -8.3348   -1.7358 H   0  0  0  0  0  0  0  0  0  0  0  0
   22.2503   -9.3218   -1.8407 H   0  0  0  0  0  0  0  0  0  0  0  0
   21.2045   -7.3487    1.8313 H   0  0  0  0  0  0  0  0  0  0  0  0
   23.4585   -6.3745    1.9705 H   0  0  0  0  0  0  0  0  0  0  0  0
  7  2  1  0
 12  5  1  0
 10  8  1  0
  8 12  1  0
 12 13  2  0
 13 11  1  0
 11  9  2  0
  9 10  1  0
 11 16  1  0
 16 17  2  0
 17 15  1  0
 15 14  2  0
 14  9  1  0
 10 18  2  0
  8 19  1  0
 14 20  1  0
 15 21  1  0
 16 22  1  0
 17 23  1  0
  3  1  2  0
  1  5  1  0
  5  6  2  0
  6  4  1  0
  4  2  2  0
  2  3  1  0
  1 24  1  0
  3 25  1  0
  4 26  1  0
  6 27  1  0
M  END
$$$$
