R1_3_R2_1
     RDKit          3D

 39 41  0  0  0  0  0  0  0  0999 V2000
   23.7938   -8.1070   -0.9539 C   0  0  0  0  0  0  0  0  0  0  0  0
   21.5839   -8.3844   -0.0179 C   0  0  0  0  0  0  0  0  0  0  0  0
   22.5159   -8.6654   -1.0157 C   0  0  0  0  0  0  0  0  0  0  0  0
   21.9292   -7.5517    1.0463 C   0  0  0  0  0  0  0  0  0  0  0  0
   24.1422   -7.2566    0.1032 C   0  0  0  0  0  0  0  0  0  0  0  0
   23.2068   -6.9895    1.1118 C   0  0  0  0  0  0  0  0  0  0  0  0
   20.1526   -8.9512   -0.0349 C   0  0  0  0  0  0  0  0  0  0  0  0
   19.1363   -7.7904   -0.0913 C   0  0  0  0  0  0  0  0  0  0  0  0
   19.8601   -9.8742   -1.2395 C   0  0  0  0  0  0  0  0  0  0  0  0
   19.9065   -9.7804    1.2442 C   0  0  0  0  0  0  0  0  0  0  0  0
   18.1079   -8.1673   -0.1386 H   0  0  0  0  0  0  0  0  0  0  0  0
   19.1991   -7.1413    0.7891 H   0  0  0  0  0  0  0  0  0  0  0  0
   19.3027   -7.1629   -0.9750 H   0  0  0  0  0  0  0  0  0  0  0  0
   20.5271  -10.7441   -1.2523 H   0  0  0  0  0  0  0  0  0  0  0  0
   19.9726   -9.3431   -2.1919 H   0  0  0  0  0  0  0  0  0  0  0  0
   18.8327  -10.2562   -1.2042 H   0  0  0  0  0  0  0  0  0  0  0  0
   19.9825   -9.1735    2.1531 H   0  0  0  0  0  0  0  0  0  0  0  0
   18.9048  -10.2258    1.2400 H   0  0  0  0  0  0  0  0  0  0  0  0
   20.6340  -10.5961    1.3314 H   0  0  0  0  0  0  0  0  0  0  0  0
   25.6563   -5.4506    0.7397 N   0  0  0  0  0  0  0  0  0  0  0  0
   28.0097   -5.4722    0.2401 C   0  0  0  0  0  0  0  0  0  0  0  0
   26.8495   -4.7783    0.8189 C   0  0  0  0  0  0  0  0  0  0  0  0
   27.7814   -6.7149   -0.3548 C   0  0  0  0  0  0  0  0  0  0  0  0
   25.5124   -6.6779    0.1314 C   0  0  0  0  0  0  0  0  0  0  0  0
   26.5079   -7.3056   -0.4109 N   0  0  0  0  0  0  0  0  0  0  0  0
   29.2874   -4.9048    0.2802 C   0  0  0  0  0  0  0  0  0  0  0  0
   30.3594   -5.5948   -0.2837 C   0  0  0  0  0  0  0  0  0  0  0  0
   28.8653   -7.3937   -0.9154 C   0  0  0  0  0  0  0  0  0  0  0  0
   30.1485   -6.8385   -0.8809 C   0  0  0  0  0  0  0  0  0  0  0  0
   26.9369   -3.6692    1.3325 O   0  0  0  0  0  0  0  0  0  0  0  0
   24.8610   -4.9413    1.0937 H   0  0  0  0  0  0  0  0  0  0  0  0
   29.4438   -3.9350    0.7462 H   0  0  0  0  0  0  0  0  0  0  0  0
   31.3577   -5.1645   -0.2585 H   0  0  0  0  0  0  0  0  0  0  0  0
   28.7054   -8.3626   -1.3813 H   0  0  0  0  0  0  0  0  0  0  0  0
   30.9828   -7.3792   -1.3214 H   0  0  0  0  0  0  0  0  0  0  0  0
   24.5155   -8.3348   -1.7358 H   0  0  0  0  0  0  0  0  0  0  0  0
   22.2503   -9.3218   -1.8407 H   0  0  0  0  0  0  0  0  0  0  0  0
   21.2045   -7.3487    1.8313 H   0  0  0  0  0  0  0  0  0  0  0  0
   23.4585   -6.3745    1.9705 H   0  0  0  0  0  0  0  0  0  0  0  0
  7  2  1  0
  7  8  1  0
  7  9  1  0
  7 10  1  0
  8 11  1  0
  8 12  1  0
  8 13  1  0
  9 14  1  0
  9 15  1  0
  9 16  1  0
 10 17  1  0
 10 18  1  0
 10 19  1  0
 24  5  1  0
 22 20  1  0
 20 24  1  0
 24 25  2  0
 25 23  1  0
 23 21  2  0
 21 22  1  0
 23 28  1  0
 28 29  2  0
 29 27  1  0
 27 26  2  0
 26 21  1  0
 22 30  2  0
 20 31  1  0
 26 32  1  0
 27 33  1  0
 28 34  1  0
 29 35  1  0
  3  1  2  0
  1  5  1  0
  5  6  2  0
  6  4  1  0
  4  2  2  0
  2  3  1  0
  1 36  1  0
  3 37  1  0
  4 38  1  0
  6 39  1  0
M  END
$$$$
