R1_3
     RDKit          3D

 32 33  0  0  0  0  0  0  0  0999 V2000
    8.0574   -7.8045   -0.5273 C   0  0  0  0  0  0  0  0  0  0  0  0
   10.0776   -6.4107   -0.2599 C   0  0  0  0  0  0  0  0  0  0  0  0
    8.9112   -6.7711   -0.9590 C   0  0  0  0  0  0  0  0  0  0  0  0
   10.4218   -7.1743    0.8588 C   0  0  0  0  0  0  0  0  0  0  0  0
    8.4262   -8.5559    0.6028 C   0  0  0  0  0  0  0  0  0  0  0  0
    9.6062   -8.2274    1.2844 C   0  0  0  0  0  0  0  0  0  0  0  0
    7.5882   -9.7014    1.1047 C   0  0  0  0  0  0  0  0  0  0  0  0
    6.8112   -8.1271   -1.3223 C   0  0  0  0  0  0  0  0  0  0  0  0
    6.3336   -6.9655   -1.9977 O   0  0  0  0  0  0  0  0  0  0  0  0
   10.9826   -5.2732   -0.6954 C   0  0  1  0  0  0  0  0  0  0  0  0
   10.4953   -4.3696   -1.8367 C   0  0  0  0  0  0  0  0  0  0  0  0
   11.4954   -3.1980   -1.8097 C   0  0  1  0  0  0  0  0  0  0  0  0
   10.9320   -2.1288   -2.3354 O   0  5  0  0  0  0  0  0  0  0  0  0
   12.4388   -3.5860   -2.2226 H   0  0  0  0  0  0  0  0  0  0  0  0
   11.7416   -2.9776   -0.3003 C   0  0  0  0  0  0  0  0  0  0  0  0
   11.2638   -4.2489    0.4124 C   0  0  0  0  0  0  0  0  0  0  0  0
    8.6417   -6.2428   -1.8745 H   0  0  0  0  0  0  0  0  0  0  0  0
   11.3314   -6.9992    1.4258 H   0  0  0  0  0  0  0  0  0  0  0  0
    9.9092   -8.8072    2.1561 H   0  0  0  0  0  0  0  0  0  0  0  0
    6.6480   -9.3263    1.5209 H   0  0  0  0  0  0  0  0  0  0  0  0
    8.1037  -10.2618    1.8920 H   0  0  0  0  0  0  0  0  0  0  0  0
    7.3758  -10.4055    0.2938 H   0  0  0  0  0  0  0  0  0  0  0  0
    6.0051   -8.4708   -0.6678 H   0  0  0  0  0  0  0  0  0  0  0  0
    7.0381   -8.8989   -2.0646 H   0  0  0  0  0  0  0  0  0  0  0  0
    5.5339   -7.2435   -2.4787 H   0  0  0  0  0  0  0  0  0  0  0  0
   11.9342   -5.7272   -1.0090 H   0  0  0  0  0  0  0  0  0  0  0  0
   10.5070   -4.8899   -2.8026 H   0  0  0  0  0  0  0  0  0  0  0  0
    9.4634   -4.0359   -1.6506 H   0  0  0  0  0  0  0  0  0  0  0  0
   12.8124   -2.8203   -0.1176 H   0  0  0  0  0  0  0  0  0  0  0  0
   11.2241   -2.1052    0.1214 H   0  0  0  0  0  0  0  0  0  0  0  0
   10.3506   -4.0258    0.9790 H   0  0  0  0  0  0  0  0  0  0  0  0
   12.0115   -4.6070    1.1282 H   0  0  0  0  0  0  0  0  0  0  0  0
 12 15  1  0
 12 11  1  0
 12 13  1  0
 12 14  1  6
  3  1  2  0
  1  5  1  0
  5  6  2  0
  6  4  1  0
  4  2  2  0
  2  3  1  0
  5  7  1  0
  1  8  1  0
  8  9  1  0
  2 10  1  0
 10 16  1  0
 16 15  1  0
 11 10  1  0
  3 17  1  0
  4 18  1  0
  6 19  1  0
  7 20  1  0
  7 21  1  0
  7 22  1  0
  8 23  1  0
  8 24  1  0
  9 25  1  0
 10 26  1  6
 11 27  1  0
 11 28  1  0
 15 29  1  0
 15 30  1  0
 16 31  1  0
 16 32  1  0
M  CHG  1  13  -1
M  END
$$$$
