R1_5_R2_1
     RDKit          3D

 37 39  0  0  0  0  0  0  0  0999 V2000
    7.5900   -5.9026   -0.5828 C   0  0  0  0  0  0  0  0  0  0  0  0
    7.1037   -6.3616   -2.8495 C   0  0  0  0  0  0  0  0  0  0  0  0
    6.7323   -5.7513   -1.6503 C   0  0  0  0  0  0  0  0  0  0  0  0
    8.2938   -7.1096   -2.9386 C   0  0  0  0  0  0  0  0  0  0  0  0
    8.7933   -6.6096   -0.6618 C   0  0  0  0  0  0  0  0  0  0  0  0
    9.1455   -7.2497   -1.8347 C   0  0  0  0  0  0  0  0  0  0  0  0
    9.3954   -6.5617    0.6166 N   0  0  0  0  0  0  0  0  0  0  0  0
    8.5015   -5.8976    1.5031 C   0  0  0  0  0  0  0  0  0  0  0  0
    7.4202   -5.4583    0.7207 N   0  0  0  0  0  0  0  0  0  0  0  0
    6.4593   -6.2756   -3.7222 H   0  0  0  0  0  0  0  0  0  0  0  0
   11.7434   -8.6709    2.5822 C   0  0  0  0  0  0  0  0  0  0  0  0
   10.5739   -7.2434    0.9876 C   0  0  0  0  0  0  0  0  0  0  0  0
   10.6098   -7.9443    2.2022 C   0  0  0  0  0  0  0  0  0  0  0  0
   11.7419   -7.2315    0.2073 C   0  0  0  0  0  0  0  0  0  0  0  0
   12.8679   -8.6927    1.7614 C   0  0  0  0  0  0  0  0  0  0  0  0
   12.8702   -7.9649    0.5746 C   0  0  0  0  0  0  0  0  0  0  0  0
   11.8893   -6.4292   -0.8936 O   0  0  0  0  0  0  0  0  0  0  0  0
   11.6946   -9.4373    3.8825 C   0  0  0  0  0  0  0  0  0  0  0  0
    9.7426   -7.9626    2.8589 H   0  0  0  0  0  0  0  0  0  0  0  0
   13.9658   -9.4177    2.1265 O   0  0  0  0  0  0  0  0  0  0  0  0
   13.7602   -7.9395   -0.0481 H   0  0  0  0  0  0  0  0  0  0  0  0
   11.1956   -5.7479   -0.8381 H   0  0  0  0  0  0  0  0  0  0  0  0
   14.6462   -9.3165    1.4401 H   0  0  0  0  0  0  0  0  0  0  0  0
   11.2109  -10.8730    3.6729 C   0  0  0  0  0  0  0  0  0  0  0  0
   11.1553  -11.6372    4.9861 C   0  0  0  0  0  0  0  0  0  0  0  0
   12.6839   -9.4316    4.3568 H   0  0  0  0  0  0  0  0  0  0  0  0
   11.0305   -8.9181    4.5855 H   0  0  0  0  0  0  0  0  0  0  0  0
   11.8766  -11.4004    2.9791 H   0  0  0  0  0  0  0  0  0  0  0  0
   10.2137  -10.8718    3.2157 H   0  0  0  0  0  0  0  0  0  0  0  0
   10.8067  -12.6604    4.8147 H   0  0  0  0  0  0  0  0  0  0  0  0
   10.4678  -11.1576    5.6902 H   0  0  0  0  0  0  0  0  0  0  0  0
   12.1445  -11.6889    5.4519 H   0  0  0  0  0  0  0  0  0  0  0  0
    8.6051   -5.6978    2.7028 O   0  0  0  0  0  0  0  0  0  0  0  0
    5.8043   -5.1985   -1.5668 H   0  0  0  0  0  0  0  0  0  0  0  0
    8.5509   -7.5962   -3.8780 H   0  0  0  0  0  0  0  0  0  0  0  0
   10.0384   -7.8591   -1.9195 H   0  0  0  0  0  0  0  0  0  0  0  0
    6.6287   -4.9638    1.0991 H   0  0  0  0  0  0  0  0  0  0  0  0
 10  2  1  0
 12  7  1  0
 13 11  2  0
 11 15  1  0
 15 16  2  0
 16 14  1  0
 14 12  2  0
 12 13  1  0
 14 17  1  0
 11 18  1  0
 13 19  1  0
 15 20  1  0
 16 21  1  0
 17 22  1  0
 20 23  1  0
 18 24  1  0
 24 25  1  0
 18 26  1  0
 18 27  1  0
 24 28  1  0
 24 29  1  0
 25 30  1  0
 25 31  1  0
 25 32  1  0
  3  1  2  0
  1  5  1  0
  5  6  2  0
  6  4  1  0
  4  2  2  0
  2  3  1  0
  1  9  1  0
  9  8  1  0
  8  7  1  0
  7  5  1  0
  8 33  2  0
  3 34  1  0
  4 35  1  0
  6 36  1  0
  9 37  1  0
M  END
$$$$
