R1_5_R2_2
     RDKit          3D

 40 42  0  0  0  0  0  0  0  0999 V2000
    7.5900   -5.9026   -0.5828 C   0  0  0  0  0  0  0  0  0  0  0  0
    7.1037   -6.3616   -2.8495 C   0  0  0  0  0  0  0  0  0  0  0  0
    6.7323   -5.7513   -1.6503 C   0  0  0  0  0  0  0  0  0  0  0  0
    8.2938   -7.1096   -2.9386 C   0  0  0  0  0  0  0  0  0  0  0  0
    8.7933   -6.6096   -0.6618 C   0  0  0  0  0  0  0  0  0  0  0  0
    9.1455   -7.2497   -1.8347 C   0  0  0  0  0  0  0  0  0  0  0  0
    9.3954   -6.5617    0.6166 N   0  0  0  0  0  0  0  0  0  0  0  0
    8.5015   -5.8976    1.5031 C   0  0  0  0  0  0  0  0  0  0  0  0
    7.4202   -5.4583    0.7207 N   0  0  0  0  0  0  0  0  0  0  0  0
    6.2394   -6.2133   -4.0800 C   0  0  0  0  0  0  0  0  0  0  0  0
    4.9241   -6.0161   -3.7868 F   0  0  0  0  0  0  0  0  0  0  0  0
    6.2804   -7.3037   -4.8942 F   0  0  0  0  0  0  0  0  0  0  0  0
    6.6161   -5.1552   -4.8479 F   0  0  0  0  0  0  0  0  0  0  0  0
   11.7434   -8.6709    2.5822 C   0  0  0  0  0  0  0  0  0  0  0  0
   10.5739   -7.2434    0.9876 C   0  0  0  0  0  0  0  0  0  0  0  0
   10.6098   -7.9443    2.2022 C   0  0  0  0  0  0  0  0  0  0  0  0
   11.7419   -7.2315    0.2073 C   0  0  0  0  0  0  0  0  0  0  0  0
   12.8679   -8.6927    1.7614 C   0  0  0  0  0  0  0  0  0  0  0  0
   12.8702   -7.9649    0.5746 C   0  0  0  0  0  0  0  0  0  0  0  0
   11.8893   -6.4292   -0.8936 O   0  0  0  0  0  0  0  0  0  0  0  0
   11.7119   -9.3996    3.9046 C   0  0  0  0  0  0  0  0  0  0  0  0
    9.7426   -7.9626    2.8589 H   0  0  0  0  0  0  0  0  0  0  0  0
   13.9583   -9.4335    2.1168 O   0  0  0  0  0  0  0  0  0  0  0  0
   13.7602   -7.9395   -0.0481 H   0  0  0  0  0  0  0  0  0  0  0  0
   11.1956   -5.7479   -0.8381 H   0  0  0  0  0  0  0  0  0  0  0  0
   14.6399   -9.3313    1.4318 H   0  0  0  0  0  0  0  0  0  0  0  0
   12.2544   -8.5306    5.0401 C   0  0  0  0  0  0  0  0  0  0  0  0
   12.2120   -9.2656    6.3703 C   0  0  0  0  0  0  0  0  0  0  0  0
   10.6808   -9.7040    4.1269 H   0  0  0  0  0  0  0  0  0  0  0  0
   12.2827  -10.3335    3.8303 H   0  0  0  0  0  0  0  0  0  0  0  0
   11.6680   -7.6071    5.1214 H   0  0  0  0  0  0  0  0  0  0  0  0
   13.2880   -8.2314    4.8286 H   0  0  0  0  0  0  0  0  0  0  0  0
   11.1864   -9.5457    6.6312 H   0  0  0  0  0  0  0  0  0  0  0  0
   12.8191  -10.1759    6.3348 H   0  0  0  0  0  0  0  0  0  0  0  0
   12.6033   -8.6273    7.1687 H   0  0  0  0  0  0  0  0  0  0  0  0
    8.6051   -5.6978    2.7028 O   0  0  0  0  0  0  0  0  0  0  0  0
    5.8043   -5.1985   -1.5668 H   0  0  0  0  0  0  0  0  0  0  0  0
    8.5509   -7.5962   -3.8780 H   0  0  0  0  0  0  0  0  0  0  0  0
   10.0384   -7.8591   -1.9195 H   0  0  0  0  0  0  0  0  0  0  0  0
    6.6287   -4.9638    1.0991 H   0  0  0  0  0  0  0  0  0  0  0  0
 10  2  1  0
 10 11  1  0
 10 12  1  0
 10 13  1  0
 15  7  1  0
 16 14  2  0
 14 18  1  0
 18 19  2  0
 19 17  1  0
 17 15  2  0
 15 16  1  0
 17 20  1  0
 14 21  1  0
 16 22  1  0
 18 23  1  0
 19 24  1  0
 20 25  1  0
 23 26  1  0
 21 27  1  0
 27 28  1  0
 21 29  1  0
 21 30  1  0
 27 31  1  0
 27 32  1  0
 28 33  1  0
 28 34  1  0
 28 35  1  0
  3  1  2  0
  1  5  1  0
  5  6  2  0
  6  4  1  0
  4  2  2  0
  2  3  1  0
  1  9  1  0
  9  8  1  0
  8  7  1  0
  7  5  1  0
  8 36  2  0
  3 37  1  0
  4 38  1  0
  6 39  1  0
  9 40  1  0
M  END
$$$$
