R1_3_R2_2
     RDKit          3D

 41 44  0  0  0  0  0  0  0  0999 V2000
    7.5900   -5.9026   -0.5828 C   0  0  0  0  0  0  0  0  0  0  0  0
    7.1037   -6.3616   -2.8495 C   0  0  0  0  0  0  0  0  0  0  0  0
    6.7323   -5.7513   -1.6503 C   0  0  0  0  0  0  0  0  0  0  0  0
    8.2938   -7.1096   -2.9386 C   0  0  0  0  0  0  0  0  0  0  0  0
    8.7933   -6.6096   -0.6618 C   0  0  0  0  0  0  0  0  0  0  0  0
    9.1455   -7.2497   -1.8347 C   0  0  0  0  0  0  0  0  0  0  0  0
    9.3954   -6.5617    0.6166 N   0  0  0  0  0  0  0  0  0  0  0  0
    8.5015   -5.8976    1.5031 C   0  0  0  0  0  0  0  0  0  0  0  0
    7.4202   -5.4583    0.7207 N   0  0  0  0  0  0  0  0  0  0  0  0
    6.2596   -6.1805   -4.0885 C   0  0  0  0  0  0  0  0  0  0  0  0
    4.9394   -5.9912   -3.8111 F   0  0  0  0  0  0  0  0  0  0  0  0
    6.3130   -7.2482   -4.9321 F   0  0  0  0  0  0  0  0  0  0  0  0
    6.6467   -5.1018   -4.8223 F   0  0  0  0  0  0  0  0  0  0  0  0
   11.7434   -8.6709    2.5822 C   0  0  0  0  0  0  0  0  0  0  0  0
   10.5739   -7.2434    0.9876 C   0  0  0  0  0  0  0  0  0  0  0  0
   10.6098   -7.9443    2.2022 C   0  0  0  0  0  0  0  0  0  0  0  0
   11.7419   -7.2315    0.2073 C   0  0  0  0  0  0  0  0  0  0  0  0
   12.8679   -8.6927    1.7614 C   0  0  0  0  0  0  0  0  0  0  0  0
   12.8702   -7.9649    0.5746 C   0  0  0  0  0  0  0  0  0  0  0  0
   11.8893   -6.4292   -0.8936 O   0  0  0  0  0  0  0  0  0  0  0  0
   11.6781   -9.3796    3.8694 C   0  0  0  0  0  0  0  0  0  0  0  0
    9.7426   -7.9626    2.8589 H   0  0  0  0  0  0  0  0  0  0  0  0
   13.9998   -9.4204    2.0162 O   0  0  0  0  0  0  0  0  0  0  0  0
   13.7602   -7.9395   -0.0481 H   0  0  0  0  0  0  0  0  0  0  0  0
   11.1956   -5.7479   -0.8381 H   0  0  0  0  0  0  0  0  0  0  0  0
   13.8206  -10.0245    2.7578 H   0  0  0  0  0  0  0  0  0  0  0  0
   12.4544   -9.6890    6.1597 C   0  0  0  0  0  0  0  0  0  0  0  0
   12.5158   -9.0141    4.9370 C   0  0  0  0  0  0  0  0  0  0  0  0
   11.5503  -10.7348    6.3278 C   0  0  0  0  0  0  0  0  0  0  0  0
   10.7701  -10.4336    4.0634 C   0  0  0  0  0  0  0  0  0  0  0  0
   10.7068  -11.1096    5.2854 C   0  0  0  0  0  0  0  0  0  0  0  0
   11.4748  -11.5663    7.8315 Cl  0  0  0  0  0  0  0  0  0  0  0  0
   13.2180   -8.1891    4.8232 H   0  0  0  0  0  0  0  0  0  0  0  0
    9.9961  -11.9218    5.4147 H   0  0  0  0  0  0  0  0  0  0  0  0
   13.1084   -9.3897    6.9746 H   0  0  0  0  0  0  0  0  0  0  0  0
   10.1016  -10.7351    3.2574 H   0  0  0  0  0  0  0  0  0  0  0  0
    8.6051   -5.6978    2.7028 O   0  0  0  0  0  0  0  0  0  0  0  0
    5.8043   -5.1985   -1.5668 H   0  0  0  0  0  0  0  0  0  0  0  0
    8.5509   -7.5962   -3.8780 H   0  0  0  0  0  0  0  0  0  0  0  0
   10.0384   -7.8591   -1.9195 H   0  0  0  0  0  0  0  0  0  0  0  0
    6.6287   -4.9638    1.0991 H   0  0  0  0  0  0  0  0  0  0  0  0
 10  2  1  0
 10 11  1  0
 10 12  1  0
 10 13  1  0
 15  7  1  0
 16 14  2  0
 14 18  1  0
 18 19  2  0
 19 17  1  0
 17 15  2  0
 15 16  1  0
 17 20  1  0
 14 21  1  0
 16 22  1  0
 18 23  1  0
 19 24  1  0
 20 25  1  0
 23 26  1  0
 28 21  2  0
 21 30  1  0
 30 31  2  0
 31 29  1  0
 29 27  2  0
 27 28  1  0
 29 32  1  0
 28 33  1  0
 31 34  1  0
 27 35  1  0
 30 36  1  0
  3  1  2  0
  1  5  1  0
  5  6  2  0
  6  4  1  0
  4  2  2  0
  2  3  1  0
  1  9  1  0
  9  8  1  0
  8  7  1  0
  7  5  1  0
  8 37  2  0
  3 38  1  0
  4 39  1  0
  6 40  1  0
  9 41  1  0
M  END
$$$$
