R1_7_R2_2
     RDKit          3D

 44 47  0  0  0  0  0  0  0  0999 V2000
    7.5900   -5.9026   -0.5828 C   0  0  0  0  0  0  0  0  0  0  0  0
    7.1037   -6.3616   -2.8495 C   0  0  0  0  0  0  0  0  0  0  0  0
    6.7323   -5.7513   -1.6503 C   0  0  0  0  0  0  0  0  0  0  0  0
    8.2938   -7.1096   -2.9386 C   0  0  0  0  0  0  0  0  0  0  0  0
    8.7933   -6.6096   -0.6618 C   0  0  0  0  0  0  0  0  0  0  0  0
    9.1455   -7.2497   -1.8347 C   0  0  0  0  0  0  0  0  0  0  0  0
    9.3954   -6.5617    0.6166 N   0  0  0  0  0  0  0  0  0  0  0  0
    8.5015   -5.8976    1.5031 C   0  0  0  0  0  0  0  0  0  0  0  0
    7.4202   -5.4583    0.7207 N   0  0  0  0  0  0  0  0  0  0  0  0
    6.2005   -6.2778   -4.0580 C   0  0  0  0  0  0  0  0  0  0  0  0
    5.3142   -7.3084   -4.1109 F   0  0  0  0  0  0  0  0  0  0  0  0
    5.4551   -5.1383   -4.0857 F   0  0  0  0  0  0  0  0  0  0  0  0
    6.8831   -6.3054   -5.2355 F   0  0  0  0  0  0  0  0  0  0  0  0
   11.7434   -8.6709    2.5822 C   0  0  0  0  0  0  0  0  0  0  0  0
   10.5739   -7.2434    0.9876 C   0  0  0  0  0  0  0  0  0  0  0  0
   10.6098   -7.9443    2.2022 C   0  0  0  0  0  0  0  0  0  0  0  0
   11.7419   -7.2315    0.2073 C   0  0  0  0  0  0  0  0  0  0  0  0
   12.8679   -8.6927    1.7614 C   0  0  0  0  0  0  0  0  0  0  0  0
   12.8702   -7.9649    0.5746 C   0  0  0  0  0  0  0  0  0  0  0  0
   11.8893   -6.4292   -0.8936 O   0  0  0  0  0  0  0  0  0  0  0  0
   11.6796   -9.3955    3.8654 C   0  0  0  0  0  0  0  0  0  0  0  0
    9.7426   -7.9626    2.8589 H   0  0  0  0  0  0  0  0  0  0  0  0
   13.9661   -9.4395    2.0935 O   0  0  0  0  0  0  0  0  0  0  0  0
   13.7602   -7.9395   -0.0481 H   0  0  0  0  0  0  0  0  0  0  0  0
   11.1956   -5.7479   -0.8381 H   0  0  0  0  0  0  0  0  0  0  0  0
   14.6211   -9.3751    1.3789 H   0  0  0  0  0  0  0  0  0  0  0  0
   10.6163  -11.0388    5.3201 C   0  0  0  0  0  0  0  0  0  0  0  0
   10.6857  -10.3590    4.1024 C   0  0  0  0  0  0  0  0  0  0  0  0
   11.5410  -10.7648    6.3261 C   0  0  0  0  0  0  0  0  0  0  0  0
   12.6025   -9.1332    4.8918 C   0  0  0  0  0  0  0  0  0  0  0  0
   12.5418   -9.8044    6.1257 C   0  0  0  0  0  0  0  0  0  0  0  0
   13.5647   -9.5212    7.1963 C   0  0  0  0  0  0  0  0  0  0  0  0
   11.4814  -11.3073    7.2685 H   0  0  0  0  0  0  0  0  0  0  0  0
   13.3879   -8.3951    4.7252 H   0  0  0  0  0  0  0  0  0  0  0  0
   13.1036   -9.7708    8.4549 F   0  0  0  0  0  0  0  0  0  0  0  0
   13.9804   -8.2233    7.2091 F   0  0  0  0  0  0  0  0  0  0  0  0
   14.6901  -10.2742    7.0564 F   0  0  0  0  0  0  0  0  0  0  0  0
    9.8447  -11.7883    5.4790 H   0  0  0  0  0  0  0  0  0  0  0  0
    9.9629  -10.5998    3.3250 H   0  0  0  0  0  0  0  0  0  0  0  0
    8.6051   -5.6978    2.7028 O   0  0  0  0  0  0  0  0  0  0  0  0
    5.8043   -5.1985   -1.5668 H   0  0  0  0  0  0  0  0  0  0  0  0
    8.5509   -7.5962   -3.8780 H   0  0  0  0  0  0  0  0  0  0  0  0
   10.0384   -7.8591   -1.9195 H   0  0  0  0  0  0  0  0  0  0  0  0
    6.6287   -4.9638    1.0991 H   0  0  0  0  0  0  0  0  0  0  0  0
 10  2  1  0
 10 11  1  0
 10 12  1  0
 10 13  1  0
 15  7  1  0
 16 14  2  0
 14 18  1  0
 18 19  2  0
 19 17  1  0
 17 15  2  0
 15 16  1  0
 17 20  1  0
 14 21  1  0
 16 22  1  0
 18 23  1  0
 19 24  1  0
 20 25  1  0
 23 26  1  0
 28 21  2  0
 21 30  1  0
 30 31  2  0
 31 29  1  0
 29 27  2  0
 27 28  1  0
 31 32  1  0
 29 33  1  0
 30 34  1  0
 32 35  1  0
 32 36  1  0
 32 37  1  0
 27 38  1  0
 28 39  1  0
  3  1  2  0
  1  5  1  0
  5  6  2  0
  6  4  1  0
  4  2  2  0
  2  3  1  0
  1  9  1  0
  9  8  1  0
  8  7  1  0
  7  5  1  0
  8 40  2  0
  3 41  1  0
  4 42  1  0
  6 43  1  0
  9 44  1  0
M  END
$$$$
