R1_4_R2_2
     RDKit          3D

 41 44  0  0  0  0  0  0  0  0999 V2000
    7.5900   -5.9026   -0.5828 C   0  0  0  0  0  0  0  0  0  0  0  0
    7.1037   -6.3616   -2.8495 C   0  0  0  0  0  0  0  0  0  0  0  0
    6.7323   -5.7513   -1.6503 C   0  0  0  0  0  0  0  0  0  0  0  0
    8.2938   -7.1096   -2.9386 C   0  0  0  0  0  0  0  0  0  0  0  0
    8.7933   -6.6096   -0.6618 C   0  0  0  0  0  0  0  0  0  0  0  0
    9.1455   -7.2497   -1.8347 C   0  0  0  0  0  0  0  0  0  0  0  0
    9.3954   -6.5617    0.6166 N   0  0  0  0  0  0  0  0  0  0  0  0
    8.5015   -5.8976    1.5031 C   0  0  0  0  0  0  0  0  0  0  0  0
    7.4202   -5.4583    0.7207 N   0  0  0  0  0  0  0  0  0  0  0  0
    6.2601   -6.1802   -4.0889 C   0  0  0  0  0  0  0  0  0  0  0  0
    6.6493   -5.1023   -4.8230 F   0  0  0  0  0  0  0  0  0  0  0  0
    6.3126   -7.2482   -4.9320 F   0  0  0  0  0  0  0  0  0  0  0  0
    4.9403   -5.9886   -3.8123 F   0  0  0  0  0  0  0  0  0  0  0  0
   11.7434   -8.6709    2.5822 C   0  0  0  0  0  0  0  0  0  0  0  0
   10.5739   -7.2434    0.9876 C   0  0  0  0  0  0  0  0  0  0  0  0
   10.6098   -7.9443    2.2022 C   0  0  0  0  0  0  0  0  0  0  0  0
   11.7419   -7.2315    0.2073 C   0  0  0  0  0  0  0  0  0  0  0  0
   12.8679   -8.6927    1.7614 C   0  0  0  0  0  0  0  0  0  0  0  0
   12.8702   -7.9649    0.5746 C   0  0  0  0  0  0  0  0  0  0  0  0
   11.8893   -6.4292   -0.8936 O   0  0  0  0  0  0  0  0  0  0  0  0
   11.6830   -9.3742    3.8731 C   0  0  0  0  0  0  0  0  0  0  0  0
    9.7426   -7.9626    2.8589 H   0  0  0  0  0  0  0  0  0  0  0  0
   14.0074   -9.4022    2.0279 O   0  0  0  0  0  0  0  0  0  0  0  0
   13.7602   -7.9395   -0.0481 H   0  0  0  0  0  0  0  0  0  0  0  0
   11.1956   -5.7479   -0.8381 H   0  0  0  0  0  0  0  0  0  0  0  0
   13.8656   -9.9499    2.8178 H   0  0  0  0  0  0  0  0  0  0  0  0
   11.9394   -9.2926    6.2982 C   0  0  0  0  0  0  0  0  0  0  0  0
   11.9894   -8.6667    5.0501 C   0  0  0  0  0  0  0  0  0  0  0  0
   11.5805  -10.6348    6.3846 C   0  0  0  0  0  0  0  0  0  0  0  0
   11.3235  -10.7318    3.9881 C   0  0  0  0  0  0  0  0  0  0  0  0
   11.2729  -11.3588    5.2367 C   0  0  0  0  0  0  0  0  0  0  0  0
   11.5219  -11.4044    7.9218 Cl  0  0  0  0  0  0  0  0  0  0  0  0
   12.2670   -7.6145    4.9976 H   0  0  0  0  0  0  0  0  0  0  0  0
   10.9924  -12.4062    5.3119 H   0  0  0  0  0  0  0  0  0  0  0  0
   12.1776   -8.7263    7.1955 H   0  0  0  0  0  0  0  0  0  0  0  0
   10.9448  -11.6896    2.5983 Cl  0  0  0  0  0  0  0  0  0  0  0  0
    8.6051   -5.6978    2.7028 O   0  0  0  0  0  0  0  0  0  0  0  0
    5.8043   -5.1985   -1.5668 H   0  0  0  0  0  0  0  0  0  0  0  0
    8.5509   -7.5962   -3.8780 H   0  0  0  0  0  0  0  0  0  0  0  0
   10.0384   -7.8591   -1.9195 H   0  0  0  0  0  0  0  0  0  0  0  0
    6.6287   -4.9638    1.0991 H   0  0  0  0  0  0  0  0  0  0  0  0
 10  2  1  0
 10 11  1  0
 10 12  1  0
 10 13  1  0
 15  7  1  0
 16 14  2  0
 14 18  1  0
 18 19  2  0
 19 17  1  0
 17 15  2  0
 15 16  1  0
 17 20  1  0
 14 21  1  0
 16 22  1  0
 18 23  1  0
 19 24  1  0
 20 25  1  0
 23 26  1  0
 28 21  2  0
 21 30  1  0
 30 31  2  0
 31 29  1  0
 29 27  2  0
 27 28  1  0
 29 32  1  0
 28 33  1  0
 31 34  1  0
 27 35  1  0
 30 36  1  0
  3  1  2  0
  1  5  1  0
  5  6  2  0
  6  4  1  0
  4  2  2  0
  2  3  1  0
  1  9  1  0
  9  8  1  0
  8  7  1  0
  7  5  1  0
  8 37  2  0
  3 38  1  0
  4 39  1  0
  6 40  1  0
  9 41  1  0
M  END
$$$$
