R1_8_R2_1
     RDKit          3D

 39 42  0  0  0  0  0  0  0  0999 V2000
    7.5900   -5.9026   -0.5828 C   0  0  0  0  0  0  0  0  0  0  0  0
    7.1037   -6.3616   -2.8495 C   0  0  0  0  0  0  0  0  0  0  0  0
    6.7323   -5.7513   -1.6503 C   0  0  0  0  0  0  0  0  0  0  0  0
    8.2938   -7.1096   -2.9386 C   0  0  0  0  0  0  0  0  0  0  0  0
    8.7933   -6.6096   -0.6618 C   0  0  0  0  0  0  0  0  0  0  0  0
    9.1455   -7.2497   -1.8347 C   0  0  0  0  0  0  0  0  0  0  0  0
    9.3954   -6.5617    0.6166 N   0  0  0  0  0  0  0  0  0  0  0  0
    8.5015   -5.8976    1.5031 C   0  0  0  0  0  0  0  0  0  0  0  0
    7.4202   -5.4583    0.7207 N   0  0  0  0  0  0  0  0  0  0  0  0
    6.4593   -6.2756   -3.7222 H   0  0  0  0  0  0  0  0  0  0  0  0
   11.7434   -8.6709    2.5822 C   0  0  0  0  0  0  0  0  0  0  0  0
   10.5739   -7.2434    0.9876 C   0  0  0  0  0  0  0  0  0  0  0  0
   10.6098   -7.9443    2.2022 C   0  0  0  0  0  0  0  0  0  0  0  0
   11.7419   -7.2315    0.2073 C   0  0  0  0  0  0  0  0  0  0  0  0
   12.8679   -8.6927    1.7614 C   0  0  0  0  0  0  0  0  0  0  0  0
   12.8702   -7.9649    0.5746 C   0  0  0  0  0  0  0  0  0  0  0  0
   11.8893   -6.4292   -0.8936 O   0  0  0  0  0  0  0  0  0  0  0  0
   11.6796   -9.3987    3.8672 C   0  0  0  0  0  0  0  0  0  0  0  0
    9.7426   -7.9626    2.8589 H   0  0  0  0  0  0  0  0  0  0  0  0
   13.9834   -9.4063    2.1111 O   0  0  0  0  0  0  0  0  0  0  0  0
   13.7602   -7.9395   -0.0481 H   0  0  0  0  0  0  0  0  0  0  0  0
   11.1956   -5.7479   -0.8381 H   0  0  0  0  0  0  0  0  0  0  0  0
   14.6880   -9.2195    1.4698 H   0  0  0  0  0  0  0  0  0  0  0  0
   11.3832   -9.4633    6.2955 C   0  0  0  0  0  0  0  0  0  0  0  0
   11.4525   -8.7504    5.0948 C   0  0  0  0  0  0  0  0  0  0  0  0
   11.5407  -10.8481    6.2897 C   0  0  0  0  0  0  0  0  0  0  0  0
   11.8349  -10.7970    3.8923 C   0  0  0  0  0  0  0  0  0  0  0  0
   11.7674  -11.5153    5.0893 C   0  0  0  0  0  0  0  0  0  0  0  0
   11.2983   -7.3884    5.1194 O   0  0  0  0  0  0  0  0  0  0  0  0
   11.3023   -7.0899    6.0426 H   0  0  0  0  0  0  0  0  0  0  0  0
   11.2059   -8.9572    7.2392 H   0  0  0  0  0  0  0  0  0  0  0  0
   12.0183  -11.3357    2.9643 H   0  0  0  0  0  0  0  0  0  0  0  0
   11.4898  -11.4068    7.2205 H   0  0  0  0  0  0  0  0  0  0  0  0
   11.8963  -12.5944    5.0797 H   0  0  0  0  0  0  0  0  0  0  0  0
    8.6051   -5.6978    2.7028 O   0  0  0  0  0  0  0  0  0  0  0  0
    5.8043   -5.1985   -1.5668 H   0  0  0  0  0  0  0  0  0  0  0  0
    8.5509   -7.5962   -3.8780 H   0  0  0  0  0  0  0  0  0  0  0  0
   10.0384   -7.8591   -1.9195 H   0  0  0  0  0  0  0  0  0  0  0  0
    6.6287   -4.9638    1.0991 H   0  0  0  0  0  0  0  0  0  0  0  0
 10  2  1  0
 12  7  1  0
 13 11  2  0
 11 15  1  0
 15 16  2  0
 16 14  1  0
 14 12  2  0
 12 13  1  0
 14 17  1  0
 11 18  1  0
 13 19  1  0
 15 20  1  0
 16 21  1  0
 17 22  1  0
 20 23  1  0
 25 18  2  0
 18 27  1  0
 27 28  2  0
 28 26  1  0
 26 24  2  0
 24 25  1  0
 25 29  1  0
 29 30  1  0
 24 31  1  0
 27 32  1  0
 26 33  1  0
 28 34  1  0
  3  1  2  0
  1  5  1  0
  5  6  2  0
  6  4  1  0
  4  2  2  0
  2  3  1  0
  1  9  1  0
  9  8  1  0
  8  7  1  0
  7  5  1  0
  8 35  2  0
  3 36  1  0
  4 37  1  0
  6 38  1  0
  9 39  1  0
M  END
$$$$
