system
  PyMOL3.0          3D                             0

 44 46  0  0  0  0  0  0  0  0999 V2000
   33.3291   -6.0531   26.4742 H   0  0  0  0  0  0  0  0  0  0  0  0
   40.8081   -8.5416   25.6201 H   0  0  0  0  0  0  0  0  0  0  0  0
   37.0517   -7.1215   24.5830 H   0  0  0  0  0  0  0  0  0  0  0  0
   35.7970   -6.3643   26.5779 H   0  0  0  0  0  0  0  0  0  0  0  0
   37.1456  -10.7726   25.8218 H   0  0  0  0  0  0  0  0  0  0  0  0
   32.1211   -6.5076   24.3457 H   0  0  0  0  0  0  0  0  0  0  0  0
   36.1250   -9.1090   19.2880 O   0  0  0  0  0  0  0  0  0  0  0  0
   35.1360   -8.3560   19.6760 C   0  0  0  0  0  0  0  0  0  0  0  0
   34.2970   -7.9760   18.8320 O   0  0  0  0  0  0  0  0  0  0  0  0
   34.9490   -7.9260   21.0750 C   0  0  0  0  0  0  0  0  0  0  0  0
   33.4350   -7.5210   21.7080 S   0  0  0  0  0  0  0  0  0  0  0  0
   33.9060   -7.0990   23.2820 C   0  0  0  0  0  0  0  0  0  0  0  0
   33.2000   -6.6520   24.4030 C   0  0  0  0  0  0  0  0  0  0  0  0
   33.8760   -6.3910   25.5940 C   0  0  0  0  0  0  0  0  0  0  0  0
   35.2640   -6.5670   25.6490 C   0  0  0  0  0  0  0  0  0  0  0  0
   35.9700   -6.9980   24.5300 C   0  0  0  0  0  0  0  0  0  0  0  0
   35.2930   -7.2730   23.3370 C   0  0  0  0  0  0  0  0  0  0  0  0
   35.8850   -7.7330   22.1160 C   0  0  0  0  0  0  0  0  0  0  0  0
   37.3540   -7.9850   21.9650 C   0  0  0  0  0  0  0  0  0  0  0  0
   37.7720   -9.4280   22.1020 C   0  0  0  0  0  0  0  0  0  0  0  0
   37.8180  -10.0110   23.4810 C   0  0  0  0  0  0  0  0  0  0  0  0
   38.7270   -9.3140   24.2720 O   0  0  0  0  0  0  0  0  0  0  0  0
   38.9480   -9.6200   25.5900 C   0  0  0  0  0  0  0  0  0  0  0  0
   40.1030   -9.1420   26.1950 C   0  0  0  0  0  0  0  0  0  0  0  0
   40.3650   -9.4270   27.5360 C   0  0  0  0  0  0  0  0  0  0  0  0
   41.5990   -8.9080   28.2060 C   0  0  0  0  0  0  0  0  0  0  0  0
   39.4690  -10.2020   28.2580 C   0  0  0  0  0  0  0  0  0  0  0  0
   39.8070  -10.5650   29.9310 Cl  0  0  0  0  0  0  0  0  0  0  0  0
   38.3160  -10.6820   27.6350 C   0  0  0  0  0  0  0  0  0  0  0  0
   37.3460  -11.5050   28.4200 C   0  0  0  0  0  0  0  0  0  0  0  0
   38.0490  -10.3940   26.3000 C   0  0  0  0  0  0  0  0  0  0  0  0
   33.5410   -7.4010   19.1220 H   0  0  0  0  0  0  0  0  0  0  0  0
   37.9130   -7.4190   22.7240 H   0  0  0  0  0  0  0  0  0  0  0  0
   37.6810   -7.6490   20.9700 H   0  0  0  0  0  0  0  0  0  0  0  0
   37.0750  -10.0700   21.5380 H   0  0  0  0  0  0  0  0  0  0  0  0
   38.7900   -9.5540   21.6980 H   0  0  0  0  0  0  0  0  0  0  0  0
   36.8140   -9.9520   23.9410 H   0  0  0  0  0  0  0  0  0  0  0  0
   38.1240  -11.0730   23.4240 H   0  0  0  0  0  0  0  0  0  0  0  0
   41.4500   -8.8920   29.2970 H   0  0  0  0  0  0  0  0  0  0  0  0
   42.4530   -9.5600   27.9640 H   0  0  0  0  0  0  0  0  0  0  0  0
   41.8090   -7.8850   27.8540 H   0  0  0  0  0  0  0  0  0  0  0  0
   36.4180  -11.6370   27.8410 H   0  0  0  0  0  0  0  0  0  0  0  0
   37.7870  -12.4920   28.6330 H   0  0  0  0  0  0  0  0  0  0  0  0
   37.1140  -10.9960   29.3700 H   0  0  0  0  0  0  0  0  0  0  0  0
  7  8  2  0  0  0  0
  8  9  1  0  0  0  0
  8 10  1  0  0  0  0
  9 32  1  0  0  0  0
 10 11  1  0  0  0  0
 10 18  2  0  0  0  0
 11 12  1  0  0  0  0
 12 13  2  0  0  0  0
 12 17  1  0  0  0  0
  6 13  1  0  0  0  0
 13 14  1  0  0  0  0
  1 14  1  0  0  0  0
 14 15  2  0  0  0  0
  4 15  1  0  0  0  0
 15 16  1  0  0  0  0
  3 16  1  0  0  0  0
 16 17  2  0  0  0  0
 17 18  1  0  0  0  0
 18 19  1  0  0  0  0
 19 20  1  0  0  0  0
 19 33  1  0  0  0  0
 19 34  1  0  0  0  0
 20 21  1  0  0  0  0
 20 35  1  0  0  0  0
 20 36  1  0  0  0  0
 21 22  1  0  0  0  0
 21 37  1  0  0  0  0
 21 38  1  0  0  0  0
 22 23  1  0  0  0  0
 23 24  2  0  0  0  0
 23 31  1  0  0  0  0
  2 24  1  0  0  0  0
 24 25  1  0  0  0  0
 25 26  1  0  0  0  0
 25 27  2  0  0  0  0
 26 39  1  0  0  0  0
 26 40  1  0  0  0  0
 26 41  1  0  0  0  0
 27 28  1  0  0  0  0
 27 29  1  0  0  0  0
 29 30  1  0  0  0  0
 29 31  2  0  0  0  0
 30 42  1  0  0  0  0
 30 43  1  0  0  0  0
 30 44  1  0  0  0  0
  5 31  1  0  0  0  0
M  END
$$$$
