lig_36
 OpenBabel12122414503D

 44 46  0  0  0  0  0  0  0  0999 V2000
    8.9541   -7.2198    4.0529 H   0  0  0  0  0  0  0  0  0  0  0  0
    9.0314   -7.3935    2.9835 C   0  0  0  0  0  0  0  0  0  0  0  0
    9.8217   -8.4287    2.5090 C   0  0  0  0  0  0  0  0  0  0  0  0
    9.9275   -8.6619    1.1369 C   0  0  0  0  0  0  0  0  0  0  0  0
    9.2179   -7.8358    0.2405 C   0  0  0  0  0  0  0  0  0  0  0  0
    8.4138   -6.7872    0.6859 C   0  0  0  0  0  0  0  0  0  0  0  0
    8.3330   -6.5758    2.0890 C   0  0  0  0  0  0  0  0  0  0  0  0
    7.7113   -5.7679    2.4595 H   0  0  0  0  0  0  0  0  0  0  0  0
    7.7698   -6.0918   -0.4183 C   0  0  0  0  0  0  0  0  0  0  0  0
    8.1526   -6.6175   -1.6505 C   0  0  0  0  0  0  0  0  0  0  0  0
    9.1990   -7.9593   -1.4676 N   0  0  0  0  0  0  0  0  0  0  0  0
    9.5359   -8.4813   -2.2669 H   0  0  0  0  0  0  0  0  0  0  0  0
    7.7295   -6.1238   -3.0039 C   0  0  0  0  0  0  0  0  0  0  0  0
    8.0288   -6.8457   -4.0064 O   0  0  0  0  0  0  0  0  0  0  0  0
    7.1108   -5.0136   -3.0615 O   0  5  0  0  0  0  0  0  0  0  0  0
    6.7821   -4.9703   -0.2127 C   0  0  0  0  0  0  0  0  0  0  0  0
    5.9720   -5.0284   -0.9474 H   0  0  0  0  0  0  0  0  0  0  0  0
    6.2925   -5.1128    0.7594 H   0  0  0  0  0  0  0  0  0  0  0  0
    7.4364   -3.5891   -0.2323 C   0  0  0  0  0  0  0  0  0  0  0  0
    8.0967   -3.4675    0.6365 H   0  0  0  0  0  0  0  0  0  0  0  0
    8.0793   -3.4516   -1.1107 H   0  0  0  0  0  0  0  0  0  0  0  0
    6.3818   -2.4868   -0.2023 C   0  0  0  0  0  0  0  0  0  0  0  0
    6.8777   -1.5125   -0.2663 H   0  0  0  0  0  0  0  0  0  0  0  0
    5.6827   -2.6318   -1.0313 H   0  0  0  0  0  0  0  0  0  0  0  0
    5.6628   -2.5617    1.0190 O   0  0  0  0  0  0  0  0  0  0  0  0
    4.6085   -1.7325    1.2957 C   0  0  0  0  0  0  0  0  0  0  0  0
    4.0746   -0.6246    0.5596 C   0  0  0  0  0  0  0  0  0  0  0  0
    2.9798    0.0775    1.1450 C   0  0  0  0  0  0  0  0  0  0  0  0
    2.4460   -0.3165    2.3801 C   0  0  0  0  0  0  0  0  0  0  0  0
    2.9653   -1.4020    3.0689 C   0  0  0  0  0  0  0  0  0  0  0  0
    4.0376   -2.0968    2.5278 C   0  0  0  0  0  0  0  0  0  0  0  0
    4.4612   -2.9451    3.0615 H   0  0  0  0  0  0  0  0  0  0  0  0
    2.4192   -1.8840    4.3910 C   0  0  0  0  0  0  0  0  0  0  0  0
    3.2203   -2.2913    5.0158 H   0  0  0  0  0  0  0  0  0  0  0  0
    2.0195   -1.0407    4.9909 H   0  0  0  0  0  0  0  0  0  0  0  0
    1.3401   -2.9373    4.1908 C   0  0  0  0  0  0  0  0  0  0  0  0
    0.4910   -2.5287    3.6358 H   0  0  0  0  0  0  0  0  0  0  0  0
    1.7403   -3.7928    3.6371 H   0  0  0  0  0  0  0  0  0  0  0  0
    0.9690   -3.3094    5.1516 H   0  0  0  0  0  0  0  0  0  0  0  0
    1.1223    0.5992    3.0103 Cl  0  0  0  0  0  0  0  0  0  0  0  0
    2.5683    0.9295    0.6095 H   0  0  0  0  0  0  0  0  0  0  0  0
    4.4789   -0.3271   -0.4065 H   0  0  0  0  0  0  0  0  0  0  0  0
   10.5408   -9.4668    0.7484 H   0  0  0  0  0  0  0  0  0  0  0  0
   10.3603   -9.0633    3.2081 H   0  0  0  0  0  0  0  0  0  0  0  0
  1  2  1  0  0  0  0
  2  3  1  0  0  0  0
  2  7  2  0  0  0  0
  3  4  2  0  0  0  0
  3 44  1  0  0  0  0
  4  5  1  0  0  0  0
  4 43  1  0  0  0  0
  5  6  2  0  0  0  0
  5 11  1  0  0  0  0
  6  7  1  0  0  0  0
  6  9  1  0  0  0  0
  7  8  1  0  0  0  0
  9 10  2  0  0  0  0
  9 16  1  0  0  0  0
 10 11  1  0  0  0  0
 10 13  1  0  0  0  0
 11 12  1  0  0  0  0
 13 14  2  0  0  0  0
 13 15  1  0  0  0  0
 16 17  1  0  0  0  0
 16 18  1  0  0  0  0
 16 19  1  0  0  0  0
 19 20  1  0  0  0  0
 19 21  1  0  0  0  0
 19 22  1  0  0  0  0
 22 23  1  0  0  0  0
 22 24  1  0  0  0  0
 22 25  1  0  0  0  0
 25 26  1  0  0  0  0
 26 27  1  0  0  0  0
 26 31  2  0  0  0  0
 27 28  2  0  0  0  0
 27 42  1  0  0  0  0
 28 29  1  0  0  0  0
 28 41  1  0  0  0  0
 29 30  2  0  0  0  0
 29 40  1  0  0  0  0
 30 31  1  0  0  0  0
 30 33  1  0  0  0  0
 31 32  1  0  0  0  0
 33 34  1  0  0  0  0
 33 35  1  0  0  0  0
 33 36  1  0  0  0  0
 36 37  1  0  0  0  0
 36 38  1  0  0  0  0
 36 39  1  0  0  0  0
M  CHG  1  15  -1
M  END
$$$$
