lig_E27
 OpenBabel01042523503D

 43 45  0  0  1  0  0  0  0  0999 V2000
    3.8018   -0.9787    2.1056 H   0  0  0  0  0  0  0  0  0  0  0  0
    3.6512   -0.5556    1.1186 C   0  0  0  0  0  0  0  0  0  0  0  0
    3.0900    0.6775    1.1311 N   0  0  0  0  0  0  0  0  0  0  0  0
    2.9717    1.2999   -0.0615 C   0  0  0  0  0  0  0  0  0  0  0  0
    2.3265    2.6302   -0.0607 C   0  0  0  0  0  0  0  0  0  0  0  0
    1.3753    2.9310   -1.0645 C   0  0  0  0  0  0  0  0  0  0  0  0
    1.1175    2.1925   -1.8232 H   0  0  0  0  0  0  0  0  0  0  0  0
    0.7147    4.1600   -1.1126 C   0  0  0  0  0  0  0  0  0  0  0  0
   -0.0080    4.3632   -1.9004 H   0  0  0  0  0  0  0  0  0  0  0  0
    0.9704    5.1197   -0.1421 C   0  0  0  0  0  0  0  0  0  0  0  0
    0.4458    6.0723   -0.1768 H   0  0  0  0  0  0  0  0  0  0  0  0
    1.8964    4.8588    0.8695 C   0  0  0  0  0  0  0  0  0  0  0  0
    2.1433    6.1124    2.0397 Cl  0  0  0  0  0  0  0  0  0  0  0  0
    2.5869    3.6305    0.9111 C   0  0  0  0  0  0  0  0  0  0  0  0
    3.8093    3.3992    2.1328 Cl  0  0  0  0  0  0  0  0  0  0  0  0
    3.3992    0.6450   -1.2171 C   0  0  0  0  0  0  0  0  0  0  0  0
    3.3312    1.2522   -2.4732 N   0  0  0  0  0  0  0  0  0  0  0  0
    3.6392    0.5891   -3.1770 H   0  0  0  0  0  0  0  0  0  0  0  0
    2.4151    1.6378   -2.6788 H   0  0  0  0  0  0  0  0  0  0  0  0
    3.9430   -0.6072   -1.2331 N   0  0  0  0  0  0  0  0  0  0  0  0
    4.0732   -1.2184   -0.0383 C   0  0  0  0  0  0  0  0  0  0  0  0
    4.5476   -2.5378    0.0318 N   0  0  0  0  0  0  0  0  0  0  0  0
    3.5648   -3.6226    0.1624 C   0  0  0  0  0  0  0  0  0  0  0  0
    3.2688   -3.7474    1.2118 H   0  0  0  0  0  0  0  0  0  0  0  0
    2.6612   -3.4223   -0.4264 H   0  0  0  0  0  0  0  0  0  0  0  0
    4.2194   -4.9264   -0.3831 C   0  0  2  0  0  0  0  0  0  0  0  0
    4.4561   -4.8063   -1.4475 H   0  0  0  0  0  0  0  0  0  0  0  0
    3.3537   -6.1591   -0.1800 C   0  0  0  0  0  0  0  0  0  0  0  0
    3.8344   -7.0441   -0.6120 H   0  0  0  0  0  0  0  0  0  0  0  0
    3.1772   -6.3574    0.8822 H   0  0  0  0  0  0  0  0  0  0  0  0
    2.3830   -6.0358   -0.6705 H   0  0  0  0  0  0  0  0  0  0  0  0
    5.5616   -5.1791    0.3062 N   0  3  0  0  0  0  0  0  0  0  0  0
    6.0159   -5.9884   -0.1365 H   0  0  0  0  0  0  0  0  0  0  0  0
    5.3948   -5.4296    1.2893 H   0  0  0  0  0  0  0  0  0  0  0  0
    6.5014   -3.9851    0.2383 C   0  0  2  0  0  0  0  0  0  0  0  0
    6.7330   -3.8450   -0.8248 H   0  0  0  0  0  0  0  0  0  0  0  0
    7.7676   -4.3132    1.0099 C   0  0  0  0  0  0  0  0  0  0  0  0
    7.5515   -4.5524    2.0560 H   0  0  0  0  0  0  0  0  0  0  0  0
    8.2850   -5.1682    0.5627 H   0  0  0  0  0  0  0  0  0  0  0  0
    8.4571   -3.4617    0.9941 H   0  0  0  0  0  0  0  0  0  0  0  0
    5.7913   -2.6942    0.7762 C   0  0  0  0  0  0  0  0  0  0  0  0
    6.6493   -2.4110    0.1535 H   0  0  0  0  0  0  0  0  0  0  0  0
    5.8282   -2.0718    1.6778 H   0  0  0  0  0  0  0  0  0  0  0  0
  1  2  1  0  0  0  0
  2  3  1  0  0  0  0
  2 21  2  0  0  0  0
  3  4  2  0  0  0  0
  4  5  1  0  0  0  0
  4 16  1  0  0  0  0
  5  6  1  0  0  0  0
  5 14  2  0  0  0  0
  6  7  1  0  0  0  0
  6  8  2  0  0  0  0
  8  9  1  0  0  0  0
  8 10  1  0  0  0  0
 10 11  1  0  0  0  0
 10 12  2  0  0  0  0
 12 13  1  0  0  0  0
 12 14  1  0  0  0  0
 14 15  1  0  0  0  0
 16 17  1  0  0  0  0
 16 20  2  0  0  0  0
 17 18  1  0  0  0  0
 17 19  1  0  0  0  0
 20 21  1  0  0  0  0
 21 22  1  0  0  0  0
 22 23  1  0  0  0  0
 22 41  1  0  0  0  0
 23 24  1  0  0  0  0
 23 25  1  0  0  0  0
 23 26  1  0  0  0  0
 26 27  1  1  0  0  0
 26 28  1  0  0  0  0
 26 32  1  0  0  0  0
 28 29  1  0  0  0  0
 28 30  1  0  0  0  0
 28 31  1  0  0  0  0
 32 33  1  0  0  0  0
 32 34  1  0  0  0  0
 32 35  1  0  0  0  0
 35 36  1  1  0  0  0
 35 37  1  0  0  0  0
 35 41  1  0  0  0  0
 37 38  1  0  0  0  0
 37 39  1  0  0  0  0
 37 40  1  0  0  0  0
 41 42  1  0  0  0  0
 41 43  1  0  0  0  0
M  CHG  1  32   1
M  END
$$$$
