lig_E14
 OpenBabel01042523503D

 40 42  0  0  1  0  0  0  0  0999 V2000
    3.7492   -1.0071    2.0997 H   0  0  0  0  0  0  0  0  0  0  0  0
    3.6512   -0.5556    1.1186 C   0  0  0  0  0  0  0  0  0  0  0  0
    3.0900    0.6775    1.1311 N   0  0  0  0  0  0  0  0  0  0  0  0
    2.9717    1.2999   -0.0615 C   0  0  0  0  0  0  0  0  0  0  0  0
    2.3265    2.6302   -0.0607 C   0  0  0  0  0  0  0  0  0  0  0  0
    1.3753    2.9310   -1.0645 C   0  0  0  0  0  0  0  0  0  0  0  0
    1.1175    2.1925   -1.8232 H   0  0  0  0  0  0  0  0  0  0  0  0
    0.7147    4.1600   -1.1126 C   0  0  0  0  0  0  0  0  0  0  0  0
   -0.0080    4.3632   -1.9004 H   0  0  0  0  0  0  0  0  0  0  0  0
    0.9704    5.1197   -0.1421 C   0  0  0  0  0  0  0  0  0  0  0  0
    0.4458    6.0723   -0.1768 H   0  0  0  0  0  0  0  0  0  0  0  0
    1.8964    4.8588    0.8695 C   0  0  0  0  0  0  0  0  0  0  0  0
    2.1433    6.1124    2.0397 Cl  0  0  0  0  0  0  0  0  0  0  0  0
    2.5869    3.6305    0.9111 C   0  0  0  0  0  0  0  0  0  0  0  0
    3.8093    3.3992    2.1328 Cl  0  0  0  0  0  0  0  0  0  0  0  0
    3.3992    0.6450   -1.2171 C   0  0  0  0  0  0  0  0  0  0  0  0
    3.3312    1.2522   -2.4732 N   0  0  0  0  0  0  0  0  0  0  0  0
    3.6392    0.5891   -3.1770 H   0  0  0  0  0  0  0  0  0  0  0  0
    2.4151    1.6378   -2.6788 H   0  0  0  0  0  0  0  0  0  0  0  0
    3.9430   -0.6072   -1.2331 N   0  0  0  0  0  0  0  0  0  0  0  0
    4.0732   -1.2184   -0.0383 C   0  0  0  0  0  0  0  0  0  0  0  0
    4.5476   -2.5378    0.0318 N   0  0  0  0  0  0  0  0  0  0  0  0
    3.5962   -3.6118    0.3151 C   0  0  0  0  0  0  0  0  0  0  0  0
    3.3563   -4.1370   -0.6160 H   0  0  0  0  0  0  0  0  0  0  0  0
    2.6647   -3.2755    0.7832 H   0  0  0  0  0  0  0  0  0  0  0  0
    4.3539   -4.5384    1.2728 C   0  0  0  0  0  0  0  0  0  0  0  0
    4.1001   -4.2689    2.3051 H   0  0  0  0  0  0  0  0  0  0  0  0
    4.0872   -5.5884    1.1339 H   0  0  0  0  0  0  0  0  0  0  0  0
    5.8599   -4.2048    1.0195 C   0  0  1  0  0  0  0  0  0  0  0  0
    6.4695   -4.4219    1.9060 H   0  0  0  0  0  0  0  0  0  0  0  0
    6.4657   -4.9100   -0.1896 C   0  0  0  0  0  0  0  0  0  0  0  0
    5.8789   -4.7936   -1.1049 H   0  0  0  0  0  0  0  0  0  0  0  0
    7.4895   -4.5641   -0.3762 H   0  0  0  0  0  0  0  0  0  0  0  0
    6.5710   -6.3733    0.0643 N   0  3  0  0  0  0  0  0  0  0  0  0
    7.0633   -6.5798    0.9448 H   0  0  0  0  0  0  0  0  0  0  0  0
    5.6501   -6.8292    0.1043 H   0  0  0  0  0  0  0  0  0  0  0  0
    7.0976   -6.8348   -0.6897 H   0  0  0  0  0  0  0  0  0  0  0  0
    5.7913   -2.6942    0.7762 C   0  0  0  0  0  0  0  0  0  0  0  0
    6.6493   -2.4110    0.1535 H   0  0  0  0  0  0  0  0  0  0  0  0
    5.8282   -2.0718    1.6778 H   0  0  0  0  0  0  0  0  0  0  0  0
  1  2  1  0  0  0  0
  2  3  1  0  0  0  0
  2 21  2  0  0  0  0
  3  4  2  0  0  0  0
  4  5  1  0  0  0  0
  4 16  1  0  0  0  0
  5  6  1  0  0  0  0
  5 14  2  0  0  0  0
  6  7  1  0  0  0  0
  6  8  2  0  0  0  0
  8  9  1  0  0  0  0
  8 10  1  0  0  0  0
 10 11  1  0  0  0  0
 10 12  2  0  0  0  0
 12 13  1  0  0  0  0
 12 14  1  0  0  0  0
 14 15  1  0  0  0  0
 16 17  1  0  0  0  0
 16 20  2  0  0  0  0
 17 18  1  0  0  0  0
 17 19  1  0  0  0  0
 20 21  1  0  0  0  0
 21 22  1  0  0  0  0
 22 23  1  0  0  0  0
 22 38  1  0  0  0  0
 23 24  1  0  0  0  0
 23 25  1  0  0  0  0
 23 26  1  0  0  0  0
 26 27  1  0  0  0  0
 26 28  1  0  0  0  0
 26 29  1  0  0  0  0
 29 30  1  1  0  0  0
 29 31  1  0  0  0  0
 29 38  1  0  0  0  0
 31 32  1  0  0  0  0
 31 33  1  0  0  0  0
 31 34  1  0  0  0  0
 34 35  1  0  0  0  0
 34 36  1  0  0  0  0
 34 37  1  0  0  0  0
 38 39  1  0  0  0  0
 38 40  1  0  0  0  0
M  CHG  1  34   1
M  END
$$$$
