lig_p38a_2gg
 OpenBabel01042522153D

 48 51  0  0  0  0  0  0  0  0999 V2000
    5.4843   -3.6302   -2.0135 H   0  0  0  0  0  0  0  0  0  0  0  0
    4.6433   -2.9834   -1.7790 C   0  0  0  0  0  0  0  0  0  0  0  0
    4.9457   -1.6717   -1.7041 N   0  0  0  0  0  0  0  0  0  0  0  0
    3.9452   -0.8264   -1.4274 C   0  0  0  0  0  0  0  0  0  0  0  0
    4.2746    0.5186   -1.3924 N   0  0  0  0  0  0  0  0  0  0  0  0
    5.1188    0.5820   -1.9558 H   0  0  0  0  0  0  0  0  0  0  0  0
    3.2744    1.5511   -1.6143 C   0  0  0  0  0  0  0  0  0  0  0  0
    2.6868    1.3176   -2.5116 H   0  0  0  0  0  0  0  0  0  0  0  0
    4.0268    2.8760   -1.8739 C   0  0  0  0  0  0  0  0  0  0  0  0
    3.2986    3.6668   -2.0940 H   0  0  0  0  0  0  0  0  0  0  0  0
    4.6563    2.7725   -2.7667 H   0  0  0  0  0  0  0  0  0  0  0  0
    4.9116    3.3076   -0.7066 C   0  0  0  0  0  0  0  0  0  0  0  0
    5.3833    4.2726   -0.9194 H   0  0  0  0  0  0  0  0  0  0  0  0
    5.7062    2.5813   -0.5099 H   0  0  0  0  0  0  0  0  0  0  0  0
    3.9829    3.5047    0.7970 S   0  0  0  0  0  0  0  0  0  0  0  0
    4.9193    3.5315    1.9031 O   0  0  0  0  0  0  0  0  0  0  0  0
    3.0462    4.5935    0.5938 O   0  0  0  0  0  0  0  0  0  0  0  0
    3.0522    1.9927    0.8917 C   0  0  0  0  0  0  0  0  0  0  0  0
    3.7453    1.1879    1.1540 H   0  0  0  0  0  0  0  0  0  0  0  0
    2.3383    2.1082    1.7130 H   0  0  0  0  0  0  0  0  0  0  0  0
    2.3243    1.7164   -0.4154 C   0  0  0  0  0  0  0  0  0  0  0  0
    1.6294    2.5393   -0.6283 H   0  0  0  0  0  0  0  0  0  0  0  0
    1.6974    0.8309   -0.2876 H   0  0  0  0  0  0  0  0  0  0  0  0
    2.6884   -1.2220   -1.1930 N   0  0  0  0  0  0  0  0  0  0  0  0
    2.4242   -2.5431   -1.2517 C   0  0  0  0  0  0  0  0  0  0  0  0
    3.3813   -3.4883   -1.5613 C   0  0  0  0  0  0  0  0  0  0  0  0
    3.0390   -4.8965   -1.6793 C   0  0  0  0  0  0  0  0  0  0  0  0
    3.7864   -5.5897   -2.0497 H   0  0  0  0  0  0  0  0  0  0  0  0
    1.7995   -5.3174   -1.3893 C   0  0  0  0  0  0  0  0  0  0  0  0
    1.4937   -6.6704   -1.5505 O   0  0  0  0  0  0  0  0  0  0  0  0
    0.2160   -7.0569   -1.8853 C   0  0  0  0  0  0  0  0  0  0  0  0
   -0.6217   -6.3545   -2.7600 C   0  0  0  0  0  0  0  0  0  0  0  0
   -0.1956   -5.2376   -3.3693 F   0  0  0  0  0  0  0  0  0  0  0  0
   -1.9161   -6.7929   -3.0162 C   0  0  0  0  0  0  0  0  0  0  0  0
   -2.5738   -6.2157   -3.6546 H   0  0  0  0  0  0  0  0  0  0  0  0
   -2.3551   -7.9717   -2.4296 C   0  0  0  0  0  0  0  0  0  0  0  0
   -3.6005   -8.4027   -2.6688 F   0  0  0  0  0  0  0  0  0  0  0  0
   -1.5189   -8.7207   -1.6063 C   0  0  0  0  0  0  0  0  0  0  0  0
   -1.8832   -9.6454   -1.1699 H   0  0  0  0  0  0  0  0  0  0  0  0
   -0.2275   -8.2632   -1.3341 C   0  0  0  0  0  0  0  0  0  0  0  0
    0.4242   -8.8320   -0.6761 H   0  0  0  0  0  0  0  0  0  0  0  0
    0.8016   -4.3311   -0.8233 C   0  0  0  0  0  0  0  0  0  0  0  0
   -0.2386   -4.7267   -0.2906 O   0  0  0  0  0  0  0  0  0  0  0  0
    1.1164   -2.9855   -0.9409 N   0  0  0  0  0  0  0  0  0  0  0  0
    0.1273   -1.9841   -0.5900 C   0  0  0  0  0  0  0  0  0  0  0  0
    0.5760   -1.1522   -0.0432 H   0  0  0  0  0  0  0  0  0  0  0  0
   -0.3294   -1.6206   -1.5175 H   0  0  0  0  0  0  0  0  0  0  0  0
   -0.6685   -2.4065    0.0307 H   0  0  0  0  0  0  0  0  0  0  0  0
  1  2  1  0  0  0  0
  2  3  2  0  0  0  0
  2 26  1  0  0  0  0
  3  4  1  0  0  0  0
  4  5  1  0  0  0  0
  4 24  2  0  0  0  0
  5  6  1  0  0  0  0
  5  7  1  0  0  0  0
  7  8  1  0  0  0  0
  7  9  1  0  0  0  0
  7 21  1  0  0  0  0
  9 10  1  0  0  0  0
  9 11  1  0  0  0  0
  9 12  1  0  0  0  0
 12 13  1  0  0  0  0
 12 14  1  0  0  0  0
 12 15  1  0  0  0  0
 15 16  2  0  0  0  0
 15 17  2  0  0  0  0
 15 18  1  0  0  0  0
 18 19  1  0  0  0  0
 18 20  1  0  0  0  0
 18 21  1  0  0  0  0
 21 22  1  0  0  0  0
 21 23  1  0  0  0  0
 24 25  1  0  0  0  0
 25 26  2  0  0  0  0
 25 44  1  0  0  0  0
 26 27  1  0  0  0  0
 27 28  1  0  0  0  0
 27 29  2  0  0  0  0
 29 30  1  0  0  0  0
 29 42  1  0  0  0  0
 30 31  1  0  0  0  0
 31 32  2  0  0  0  0
 31 40  1  0  0  0  0
 32 33  1  0  0  0  0
 32 34  1  0  0  0  0
 34 35  1  0  0  0  0
 34 36  2  0  0  0  0
 36 37  1  0  0  0  0
 36 38  1  0  0  0  0
 38 39  1  0  0  0  0
 38 40  2  0  0  0  0
 40 41  1  0  0  0  0
 42 43  2  0  0  0  0
 42 44  1  0  0  0  0
 44 45  1  0  0  0  0
 45 46  1  0  0  0  0
 45 47  1  0  0  0  0
 45 48  1  0  0  0  0
M  END
$$$$
