lig_p38a_2i
 OpenBabel01042522153D

 48 51  0  0  0  0  0  0  0  0999 V2000
    5.4846   -3.6294   -2.0182 H   0  0  0  0  0  0  0  0  0  0  0  0
    4.6433   -2.9834   -1.7790 C   0  0  0  0  0  0  0  0  0  0  0  0
    4.9457   -1.6717   -1.7041 N   0  0  0  0  0  0  0  0  0  0  0  0
    3.9452   -0.8264   -1.4274 C   0  0  0  0  0  0  0  0  0  0  0  0
    4.2746    0.5186   -1.3924 N   0  0  0  0  0  0  0  0  0  0  0  0
    5.1239    0.7134   -1.9052 H   0  0  0  0  0  0  0  0  0  0  0  0
    3.2433    1.5337   -1.2853 C   0  0  0  0  0  0  0  0  0  0  0  0
    2.4032    1.1728   -0.6761 H   0  0  0  0  0  0  0  0  0  0  0  0
    2.7149    1.9418   -2.6603 C   0  0  0  0  0  0  0  0  0  0  0  0
    3.5552    2.2239   -3.3075 H   0  0  0  0  0  0  0  0  0  0  0  0
    2.1987    1.1054   -3.1453 H   0  0  0  0  0  0  0  0  0  0  0  0
    1.7686    3.1273   -2.5221 C   0  0  0  0  0  0  0  0  0  0  0  0
    1.4628    3.4787   -3.5127 H   0  0  0  0  0  0  0  0  0  0  0  0
    0.8592    2.8524   -1.9750 H   0  0  0  0  0  0  0  0  0  0  0  0
    2.4103    4.2149   -1.8567 O   0  0  0  0  0  0  0  0  0  0  0  0
    2.8121    3.8759   -0.5301 C   0  0  0  0  0  0  0  0  0  0  0  0
    1.9293    3.6100    0.0631 H   0  0  0  0  0  0  0  0  0  0  0  0
    3.2582    4.7663   -0.0764 H   0  0  0  0  0  0  0  0  0  0  0  0
    3.8273    2.7456   -0.5558 C   0  0  0  0  0  0  0  0  0  0  0  0
    4.1173    2.4737    0.4660 H   0  0  0  0  0  0  0  0  0  0  0  0
    4.7347    3.0830   -1.0725 H   0  0  0  0  0  0  0  0  0  0  0  0
    2.6884   -1.2220   -1.1930 N   0  0  0  0  0  0  0  0  0  0  0  0
    2.4242   -2.5431   -1.2517 C   0  0  0  0  0  0  0  0  0  0  0  0
    3.3813   -3.4883   -1.5613 C   0  0  0  0  0  0  0  0  0  0  0  0
    3.0390   -4.8965   -1.6793 C   0  0  0  0  0  0  0  0  0  0  0  0
    3.8006   -5.5848   -2.0309 H   0  0  0  0  0  0  0  0  0  0  0  0
    1.7995   -5.3174   -1.3893 C   0  0  0  0  0  0  0  0  0  0  0  0
    1.4937   -6.6704   -1.5505 C   0  0  0  0  0  0  0  0  0  0  0  0
    2.1301   -7.1123   -2.3295 H   0  0  0  0  0  0  0  0  0  0  0  0
    1.7457   -7.2390   -0.6456 H   0  0  0  0  0  0  0  0  0  0  0  0
    0.2160   -7.0569   -1.8853 C   0  0  0  0  0  0  0  0  0  0  0  0
   -0.2275   -8.2632   -1.3341 C   0  0  0  0  0  0  0  0  0  0  0  0
    0.4190   -8.8492   -0.6821 H   0  0  0  0  0  0  0  0  0  0  0  0
   -1.5189   -8.7207   -1.6063 C   0  0  0  0  0  0  0  0  0  0  0  0
   -1.8746   -9.6527   -1.1730 H   0  0  0  0  0  0  0  0  0  0  0  0
   -2.3551   -7.9717   -2.4296 C   0  0  0  0  0  0  0  0  0  0  0  0
   -3.3681   -8.3232   -2.6045 H   0  0  0  0  0  0  0  0  0  0  0  0
   -1.9161   -6.7929   -3.0162 C   0  0  0  0  0  0  0  0  0  0  0  0
   -2.5630   -6.2079   -3.6620 H   0  0  0  0  0  0  0  0  0  0  0  0
   -0.6217   -6.3545   -2.7600 C   0  0  0  0  0  0  0  0  0  0  0  0
   -0.1956   -5.2376   -3.3693 F   0  0  0  0  0  0  0  0  0  0  0  0
    0.8016   -4.3311   -0.8233 C   0  0  0  0  0  0  0  0  0  0  0  0
   -0.2386   -4.7267   -0.2906 O   0  0  0  0  0  0  0  0  0  0  0  0
    1.1164   -2.9855   -0.9409 N   0  0  0  0  0  0  0  0  0  0  0  0
    0.1273   -1.9841   -0.5900 C   0  0  0  0  0  0  0  0  0  0  0  0
    0.4255   -1.4885    0.3390 H   0  0  0  0  0  0  0  0  0  0  0  0
    0.0512   -1.2481   -1.3987 H   0  0  0  0  0  0  0  0  0  0  0  0
   -0.8612   -2.4276   -0.4463 H   0  0  0  0  0  0  0  0  0  0  0  0
  1  2  1  0  0  0  0
  2  3  2  0  0  0  0
  2 24  1  0  0  0  0
  3  4  1  0  0  0  0
  4  5  1  0  0  0  0
  4 22  2  0  0  0  0
  5  6  1  0  0  0  0
  5  7  1  0  0  0  0
  7  8  1  0  0  0  0
  7  9  1  0  0  0  0
  7 19  1  0  0  0  0
  9 10  1  0  0  0  0
  9 11  1  0  0  0  0
  9 12  1  0  0  0  0
 12 13  1  0  0  0  0
 12 14  1  0  0  0  0
 12 15  1  0  0  0  0
 15 16  1  0  0  0  0
 16 17  1  0  0  0  0
 16 18  1  0  0  0  0
 16 19  1  0  0  0  0
 19 20  1  0  0  0  0
 19 21  1  0  0  0  0
 22 23  1  0  0  0  0
 23 24  2  0  0  0  0
 23 44  1  0  0  0  0
 24 25  1  0  0  0  0
 25 26  1  0  0  0  0
 25 27  2  0  0  0  0
 27 28  1  0  0  0  0
 27 42  1  0  0  0  0
 28 29  1  0  0  0  0
 28 30  1  0  0  0  0
 28 31  1  0  0  0  0
 31 32  2  0  0  0  0
 31 40  1  0  0  0  0
 32 33  1  0  0  0  0
 32 34  1  0  0  0  0
 34 35  1  0  0  0  0
 34 36  2  0  0  0  0
 36 37  1  0  0  0  0
 36 38  1  0  0  0  0
 38 39  1  0  0  0  0
 38 40  2  0  0  0  0
 40 41  1  0  0  0  0
 42 43  2  0  0  0  0
 42 44  1  0  0  0  0
 44 45  1  0  0  0  0
 45 46  1  0  0  0  0
 45 47  1  0  0  0  0
 45 48  1  0  0  0  0
M  END
$$$$
