lig_p38a_2j
 OpenBabel01042522153D

 48 51  0  0  0  0  0  0  0  0999 V2000
    5.4799   -3.6351   -2.0250 H   0  0  0  0  0  0  0  0  0  0  0  0
    4.6433   -2.9834   -1.7790 C   0  0  0  0  0  0  0  0  0  0  0  0
    4.9457   -1.6717   -1.7041 N   0  0  0  0  0  0  0  0  0  0  0  0
    3.9452   -0.8264   -1.4274 C   0  0  0  0  0  0  0  0  0  0  0  0
    4.2746    0.5186   -1.3924 N   0  0  0  0  0  0  0  0  0  0  0  0
    5.2650    0.7208   -1.4276 H   0  0  0  0  0  0  0  0  0  0  0  0
    3.2774    1.5252   -1.0597 C   0  0  0  0  0  0  0  0  0  0  0  0
    2.3173    1.2410   -1.5070 H   0  0  0  0  0  0  0  0  0  0  0  0
    3.6499    2.8682   -1.6985 C   0  0  0  0  0  0  0  0  0  0  0  0
    4.6879    3.1308   -1.4582 H   0  0  0  0  0  0  0  0  0  0  0  0
    3.5845    2.7932   -2.7908 H   0  0  0  0  0  0  0  0  0  0  0  0
    2.7320    3.9792   -1.2080 C   0  0  0  0  0  0  0  0  0  0  0  0
    3.0928    4.9475   -1.5696 H   0  0  0  0  0  0  0  0  0  0  0  0
    1.7082    3.8532   -1.5820 H   0  0  0  0  0  0  0  0  0  0  0  0
    2.7134    4.0304    0.2164 O   0  0  0  0  0  0  0  0  0  0  0  0
    2.1816    2.8365    0.7853 C   0  0  0  0  0  0  0  0  0  0  0  0
    1.1534    2.6878    0.4313 H   0  0  0  0  0  0  0  0  0  0  0  0
    2.1345    2.9772    1.8704 H   0  0  0  0  0  0  0  0  0  0  0  0
    3.0684    1.6447    0.4545 C   0  0  0  0  0  0  0  0  0  0  0  0
    2.6080    0.7320    0.8529 H   0  0  0  0  0  0  0  0  0  0  0  0
    4.0322    1.7637    0.9650 H   0  0  0  0  0  0  0  0  0  0  0  0
    2.6884   -1.2220   -1.1930 N   0  0  0  0  0  0  0  0  0  0  0  0
    2.4242   -2.5431   -1.2517 C   0  0  0  0  0  0  0  0  0  0  0  0
    3.3813   -3.4883   -1.5613 C   0  0  0  0  0  0  0  0  0  0  0  0
    3.0390   -4.8965   -1.6793 C   0  0  0  0  0  0  0  0  0  0  0  0
    3.7971   -5.5893   -2.0339 H   0  0  0  0  0  0  0  0  0  0  0  0
    1.7995   -5.3174   -1.3893 C   0  0  0  0  0  0  0  0  0  0  0  0
    1.4937   -6.6704   -1.5505 C   0  0  0  0  0  0  0  0  0  0  0  0
    2.2100   -7.0824   -2.2717 H   0  0  0  0  0  0  0  0  0  0  0  0
    1.7648   -7.1504   -0.5998 H   0  0  0  0  0  0  0  0  0  0  0  0
    0.2160   -7.0569   -1.8853 C   0  0  0  0  0  0  0  0  0  0  0  0
   -0.2275   -8.2632   -1.3341 C   0  0  0  0  0  0  0  0  0  0  0  0
    0.4377   -8.8685   -0.7192 H   0  0  0  0  0  0  0  0  0  0  0  0
   -1.5189   -8.7207   -1.6063 C   0  0  0  0  0  0  0  0  0  0  0  0
   -1.8649   -9.6694   -1.2076 H   0  0  0  0  0  0  0  0  0  0  0  0
   -2.3551   -7.9717   -2.4296 C   0  0  0  0  0  0  0  0  0  0  0  0
   -3.6005   -8.4027   -2.6688 F   0  0  0  0  0  0  0  0  0  0  0  0
   -1.9161   -6.7929   -3.0162 C   0  0  0  0  0  0  0  0  0  0  0  0
   -2.5629   -6.2368   -3.6825 H   0  0  0  0  0  0  0  0  0  0  0  0
   -0.6217   -6.3545   -2.7600 C   0  0  0  0  0  0  0  0  0  0  0  0
   -0.1956   -5.2376   -3.3693 F   0  0  0  0  0  0  0  0  0  0  0  0
    0.8016   -4.3311   -0.8233 C   0  0  0  0  0  0  0  0  0  0  0  0
   -0.2386   -4.7267   -0.2906 O   0  0  0  0  0  0  0  0  0  0  0  0
    1.1164   -2.9855   -0.9409 N   0  0  0  0  0  0  0  0  0  0  0  0
    0.1273   -1.9841   -0.5900 C   0  0  0  0  0  0  0  0  0  0  0  0
    0.4270   -1.4884    0.3396 H   0  0  0  0  0  0  0  0  0  0  0  0
    0.0462   -1.2413   -1.3932 H   0  0  0  0  0  0  0  0  0  0  0  0
   -0.8602   -2.4303   -0.4441 H   0  0  0  0  0  0  0  0  0  0  0  0
  1  2  1  0  0  0  0
  2  3  2  0  0  0  0
  2 24  1  0  0  0  0
  3  4  1  0  0  0  0
  4  5  1  0  0  0  0
  4 22  2  0  0  0  0
  5  6  1  0  0  0  0
  5  7  1  0  0  0  0
  7  8  1  0  0  0  0
  7  9  1  0  0  0  0
  7 19  1  0  0  0  0
  9 10  1  0  0  0  0
  9 11  1  0  0  0  0
  9 12  1  0  0  0  0
 12 13  1  0  0  0  0
 12 14  1  0  0  0  0
 12 15  1  0  0  0  0
 15 16  1  0  0  0  0
 16 17  1  0  0  0  0
 16 18  1  0  0  0  0
 16 19  1  0  0  0  0
 19 20  1  0  0  0  0
 19 21  1  0  0  0  0
 22 23  1  0  0  0  0
 23 24  2  0  0  0  0
 23 44  1  0  0  0  0
 24 25  1  0  0  0  0
 25 26  1  0  0  0  0
 25 27  2  0  0  0  0
 27 28  1  0  0  0  0
 27 42  1  0  0  0  0
 28 29  1  0  0  0  0
 28 30  1  0  0  0  0
 28 31  1  0  0  0  0
 31 32  2  0  0  0  0
 31 40  1  0  0  0  0
 32 33  1  0  0  0  0
 32 34  1  0  0  0  0
 34 35  1  0  0  0  0
 34 36  2  0  0  0  0
 36 37  1  0  0  0  0
 36 38  1  0  0  0  0
 38 39  1  0  0  0  0
 38 40  2  0  0  0  0
 40 41  1  0  0  0  0
 42 43  2  0  0  0  0
 42 44  1  0  0  0  0
 44 45  1  0  0  0  0
 45 46  1  0  0  0  0
 45 47  1  0  0  0  0
 45 48  1  0  0  0  0
M  END
$$$$
