lig_p38a_3fln
 OpenBabel01042522153D

 46 49  0  0  0  0  0  0  0  0999 V2000
    5.4848   -3.6282   -2.0173 H   0  0  0  0  0  0  0  0  0  0  0  0
    4.6433   -2.9834   -1.7790 C   0  0  0  0  0  0  0  0  0  0  0  0
    4.9457   -1.6717   -1.7041 N   0  0  0  0  0  0  0  0  0  0  0  0
    3.9452   -0.8264   -1.4274 C   0  0  0  0  0  0  0  0  0  0  0  0
    4.2746    0.5186   -1.3924 N   0  0  0  0  0  0  0  0  0  0  0  0
    5.1130    0.7124   -1.9228 H   0  0  0  0  0  0  0  0  0  0  0  0
    3.2346    1.5264   -1.2915 C   0  0  0  0  0  0  0  0  0  0  0  0
    2.4148    1.1728   -0.6503 H   0  0  0  0  0  0  0  0  0  0  0  0
    2.6675    1.8876   -2.6644 C   0  0  0  0  0  0  0  0  0  0  0  0
    3.4872    2.1731   -3.3358 H   0  0  0  0  0  0  0  0  0  0  0  0
    2.1602    1.0290   -3.1184 H   0  0  0  0  0  0  0  0  0  0  0  0
    1.6973    3.0541   -2.5319 C   0  0  0  0  0  0  0  0  0  0  0  0
    1.3591    3.3732   -3.5228 H   0  0  0  0  0  0  0  0  0  0  0  0
    0.8082    2.7717   -1.9555 H   0  0  0  0  0  0  0  0  0  0  0  0
    2.3292    4.1725   -1.9093 O   0  0  0  0  0  0  0  0  0  0  0  0
    2.7760    3.8763   -0.5867 C   0  0  0  0  0  0  0  0  0  0  0  0
    1.9165    3.6049    0.0377 H   0  0  0  0  0  0  0  0  0  0  0  0
    3.2132    4.7879   -0.1679 H   0  0  0  0  0  0  0  0  0  0  0  0
    3.8165    2.7686   -0.6139 C   0  0  0  0  0  0  0  0  0  0  0  0
    4.1449    2.5318    0.4048 H   0  0  0  0  0  0  0  0  0  0  0  0
    4.6989    3.1107   -1.1694 H   0  0  0  0  0  0  0  0  0  0  0  0
    2.6884   -1.2220   -1.1930 N   0  0  0  0  0  0  0  0  0  0  0  0
    2.4242   -2.5431   -1.2517 C   0  0  0  0  0  0  0  0  0  0  0  0
    3.3813   -3.4883   -1.5613 C   0  0  0  0  0  0  0  0  0  0  0  0
    3.0390   -4.8965   -1.6793 C   0  0  0  0  0  0  0  0  0  0  0  0
    3.7933   -5.5961   -2.0292 H   0  0  0  0  0  0  0  0  0  0  0  0
    1.7995   -5.3174   -1.3893 C   0  0  0  0  0  0  0  0  0  0  0  0
    1.4937   -6.6704   -1.5505 O   0  0  0  0  0  0  0  0  0  0  0  0
    0.2160   -7.0569   -1.8853 C   0  0  0  0  0  0  0  0  0  0  0  0
   -0.6217   -6.3545   -2.7600 C   0  0  0  0  0  0  0  0  0  0  0  0
   -0.1956   -5.2376   -3.3693 F   0  0  0  0  0  0  0  0  0  0  0  0
   -1.9161   -6.7929   -3.0162 C   0  0  0  0  0  0  0  0  0  0  0  0
   -2.5721   -6.2218   -3.6624 H   0  0  0  0  0  0  0  0  0  0  0  0
   -2.3551   -7.9717   -2.4296 C   0  0  0  0  0  0  0  0  0  0  0  0
   -3.6005   -8.4027   -2.6688 F   0  0  0  0  0  0  0  0  0  0  0  0
   -1.5189   -8.7207   -1.6063 C   0  0  0  0  0  0  0  0  0  0  0  0
   -1.8797   -9.6496   -1.1756 H   0  0  0  0  0  0  0  0  0  0  0  0
   -0.2275   -8.2632   -1.3341 C   0  0  0  0  0  0  0  0  0  0  0  0
    0.4254   -8.8388   -0.6825 H   0  0  0  0  0  0  0  0  0  0  0  0
    0.8016   -4.3311   -0.8233 C   0  0  0  0  0  0  0  0  0  0  0  0
   -0.2386   -4.7267   -0.2906 O   0  0  0  0  0  0  0  0  0  0  0  0
    1.1164   -2.9855   -0.9409 N   0  0  0  0  0  0  0  0  0  0  0  0
    0.1273   -1.9841   -0.5900 C   0  0  0  0  0  0  0  0  0  0  0  0
    0.4211   -1.4878    0.3390 H   0  0  0  0  0  0  0  0  0  0  0  0
    0.0536   -1.2485   -1.3997 H   0  0  0  0  0  0  0  0  0  0  0  0
   -0.8622   -2.4283   -0.4535 H   0  0  0  0  0  0  0  0  0  0  0  0
  1  2  1  0  0  0  0
  2  3  2  0  0  0  0
  2 24  1  0  0  0  0
  3  4  1  0  0  0  0
  4  5  1  0  0  0  0
  4 22  2  0  0  0  0
  5  6  1  0  0  0  0
  5  7  1  0  0  0  0
  7  8  1  0  0  0  0
  7  9  1  0  0  0  0
  7 19  1  0  0  0  0
  9 10  1  0  0  0  0
  9 11  1  0  0  0  0
  9 12  1  0  0  0  0
 12 13  1  0  0  0  0
 12 14  1  0  0  0  0
 12 15  1  0  0  0  0
 15 16  1  0  0  0  0
 16 17  1  0  0  0  0
 16 18  1  0  0  0  0
 16 19  1  0  0  0  0
 19 20  1  0  0  0  0
 19 21  1  0  0  0  0
 22 23  1  0  0  0  0
 23 24  2  0  0  0  0
 23 42  1  0  0  0  0
 24 25  1  0  0  0  0
 25 26  1  0  0  0  0
 25 27  2  0  0  0  0
 27 28  1  0  0  0  0
 27 40  1  0  0  0  0
 28 29  1  0  0  0  0
 29 30  2  0  0  0  0
 29 38  1  0  0  0  0
 30 31  1  0  0  0  0
 30 32  1  0  0  0  0
 32 33  1  0  0  0  0
 32 34  2  0  0  0  0
 34 35  1  0  0  0  0
 34 36  1  0  0  0  0
 36 37  1  0  0  0  0
 36 38  2  0  0  0  0
 38 39  1  0  0  0  0
 40 41  2  0  0  0  0
 40 42  1  0  0  0  0
 42 43  1  0  0  0  0
 43 44  1  0  0  0  0
 43 45  1  0  0  0  0
 43 46  1  0  0  0  0
M  END
$$$$
