lig_p38a_2s
 OpenBabel01042522153D

 54 57  0  0  1  0  0  0  0  0999 V2000
   -3.3070    0.3840   -2.2003 H   0  0  0  0  0  0  0  0  0  0  0  0
   -2.6335   -0.2530   -2.4998 O   0  0  0  0  0  0  0  0  0  0  0  0
   -1.8138   -0.5533   -1.3664 C   0  0  0  0  0  0  0  0  0  0  0  0
   -1.3351    0.3801   -1.0520 H   0  0  0  0  0  0  0  0  0  0  0  0
   -2.4528   -0.9314   -0.5628 H   0  0  0  0  0  0  0  0  0  0  0  0
   -0.7708   -1.5957   -1.7820 C   0  0  1  0  0  0  0  0  0  0  0  0
   -1.2799   -2.4697   -2.2035 H   0  0  0  0  0  0  0  0  0  0  0  0
    0.0172   -1.0448   -2.8459 O   0  0  0  0  0  0  0  0  0  0  0  0
   -0.6286   -0.6855   -3.4835 H   0  0  0  0  0  0  0  0  0  0  0  0
    0.1273   -1.9841   -0.5900 C   0  0  0  0  0  0  0  0  0  0  0  0
    0.6130   -1.0972   -0.1747 H   0  0  0  0  0  0  0  0  0  0  0  0
   -0.5030   -2.3991    0.2029 H   0  0  0  0  0  0  0  0  0  0  0  0
    1.1164   -2.9855   -0.9409 N   0  0  0  0  0  0  0  0  0  0  0  0
    0.8016   -4.3311   -0.8233 C   0  0  0  0  0  0  0  0  0  0  0  0
   -0.2386   -4.7267   -0.2906 O   0  0  0  0  0  0  0  0  0  0  0  0
    1.7995   -5.3174   -1.3893 C   0  0  0  0  0  0  0  0  0  0  0  0
    1.4937   -6.6704   -1.5505 O   0  0  0  0  0  0  0  0  0  0  0  0
    0.2160   -7.0569   -1.8853 C   0  0  0  0  0  0  0  0  0  0  0  0
   -0.2275   -8.2632   -1.3341 C   0  0  0  0  0  0  0  0  0  0  0  0
    0.4527   -8.8917   -0.7699 H   0  0  0  0  0  0  0  0  0  0  0  0
   -1.5189   -8.7207   -1.6063 C   0  0  0  0  0  0  0  0  0  0  0  0
   -1.8647   -9.6671   -1.2012 H   0  0  0  0  0  0  0  0  0  0  0  0
   -2.3551   -7.9717   -2.4296 C   0  0  0  0  0  0  0  0  0  0  0  0
   -3.6005   -8.4027   -2.6688 F   0  0  0  0  0  0  0  0  0  0  0  0
   -1.9161   -6.7929   -3.0162 C   0  0  0  0  0  0  0  0  0  0  0  0
   -2.5615   -6.2389   -3.6865 H   0  0  0  0  0  0  0  0  0  0  0  0
   -0.6217   -6.3545   -2.7600 C   0  0  0  0  0  0  0  0  0  0  0  0
   -0.1956   -5.2376   -3.3693 F   0  0  0  0  0  0  0  0  0  0  0  0
    3.0390   -4.8965   -1.6793 C   0  0  0  0  0  0  0  0  0  0  0  0
    3.7898   -5.5878   -2.0535 H   0  0  0  0  0  0  0  0  0  0  0  0
    3.3813   -3.4883   -1.5613 C   0  0  0  0  0  0  0  0  0  0  0  0
    2.4242   -2.5431   -1.2517 C   0  0  0  0  0  0  0  0  0  0  0  0
    2.6884   -1.2220   -1.1930 N   0  0  0  0  0  0  0  0  0  0  0  0
    3.9452   -0.8264   -1.4274 C   0  0  0  0  0  0  0  0  0  0  0  0
    4.2746    0.5186   -1.3924 N   0  0  0  0  0  0  0  0  0  0  0  0
    3.4783    1.0664   -1.1044 H   0  0  0  0  0  0  0  0  0  0  0  0
    5.6187    0.9490   -1.0085 C   0  0  0  0  0  0  0  0  0  0  0  0
    6.3237    0.4940   -1.7175 H   0  0  0  0  0  0  0  0  0  0  0  0
    6.0131    0.4754    0.3948 C   0  0  0  0  0  0  0  0  0  0  0  0
    5.2591    0.7735    1.1334 H   0  0  0  0  0  0  0  0  0  0  0  0
    6.0672   -0.6173    0.4172 H   0  0  0  0  0  0  0  0  0  0  0  0
    7.3557    1.0583    0.8106 C   0  0  0  0  0  0  0  0  0  0  0  0
    7.5561    0.8038    1.8566 H   0  0  0  0  0  0  0  0  0  0  0  0
    8.1771    0.6504    0.2100 H   0  0  0  0  0  0  0  0  0  0  0  0
    7.3459    2.4800    0.7052 O   0  0  0  0  0  0  0  0  0  0  0  0
    7.1540    2.9181   -0.6381 C   0  0  0  0  0  0  0  0  0  0  0  0
    7.9721    2.5432   -1.2655 H   0  0  0  0  0  0  0  0  0  0  0  0
    7.2181    4.0125   -0.6402 H   0  0  0  0  0  0  0  0  0  0  0  0
    5.7918    2.4714   -1.1639 C   0  0  0  0  0  0  0  0  0  0  0  0
    5.6923    2.7653   -2.2169 H   0  0  0  0  0  0  0  0  0  0  0  0
    5.0163    3.0192   -0.6102 H   0  0  0  0  0  0  0  0  0  0  0  0
    4.9457   -1.6717   -1.7041 N   0  0  0  0  0  0  0  0  0  0  0  0
    4.6433   -2.9834   -1.7790 C   0  0  0  0  0  0  0  0  0  0  0  0
    5.4876   -3.6276   -2.0230 H   0  0  0  0  0  0  0  0  0  0  0  0
  1  2  1  0  0  0  0
  2  3  1  0  0  0  0
  3  4  1  0  0  0  0
  3  5  1  0  0  0  0
  3  6  1  0  0  0  0
  6  7  1  6  0  0  0
  6  8  1  0  0  0  0
  6 10  1  0  0  0  0
  8  9  1  0  0  0  0
 10 11  1  0  0  0  0
 10 12  1  0  0  0  0
 10 13  1  0  0  0  0
 13 14  1  0  0  0  0
 13 32  1  0  0  0  0
 14 15  2  0  0  0  0
 14 16  1  0  0  0  0
 16 17  1  0  0  0  0
 16 29  2  0  0  0  0
 17 18  1  0  0  0  0
 18 19  2  0  0  0  0
 18 27  1  0  0  0  0
 19 20  1  0  0  0  0
 19 21  1  0  0  0  0
 21 22  1  0  0  0  0
 21 23  2  0  0  0  0
 23 24  1  0  0  0  0
 23 25  1  0  0  0  0
 25 26  1  0  0  0  0
 25 27  2  0  0  0  0
 27 28  1  0  0  0  0
 29 30  1  0  0  0  0
 29 31  1  0  0  0  0
 31 32  2  0  0  0  0
 31 53  1  0  0  0  0
 32 33  1  0  0  0  0
 33 34  2  0  0  0  0
 34 35  1  0  0  0  0
 34 52  1  0  0  0  0
 35 36  1  0  0  0  0
 35 37  1  0  0  0  0
 37 38  1  0  0  0  0
 37 39  1  0  0  0  0
 37 49  1  0  0  0  0
 39 40  1  0  0  0  0
 39 41  1  0  0  0  0
 39 42  1  0  0  0  0
 42 43  1  0  0  0  0
 42 44  1  0  0  0  0
 42 45  1  0  0  0  0
 45 46  1  0  0  0  0
 46 47  1  0  0  0  0
 46 48  1  0  0  0  0
 46 49  1  0  0  0  0
 49 50  1  0  0  0  0
 49 51  1  0  0  0  0
 52 53  2  0  0  0  0
 53 54  1  0  0  0  0
M  END
$$$$
