lig_p38a_2q
 OpenBabel01042522153D

 59 63  0  0  0  0  0  0  0  0999 V2000
    5.4817   -3.6246   -2.0410 H   0  0  0  0  0  0  0  0  0  0  0  0
    4.6433   -2.9834   -1.7790 C   0  0  0  0  0  0  0  0  0  0  0  0
    4.9457   -1.6717   -1.7041 N   0  0  0  0  0  0  0  0  0  0  0  0
    3.9452   -0.8264   -1.4274 C   0  0  0  0  0  0  0  0  0  0  0  0
    4.2746    0.5186   -1.3924 N   0  0  0  0  0  0  0  0  0  0  0  0
    3.5406    1.0532   -0.9245 H   0  0  0  0  0  0  0  0  0  0  0  0
    5.6228    0.9587   -1.0659 C   0  0  0  0  0  0  0  0  0  0  0  0
    6.3396    0.5456   -1.7880 H   0  0  0  0  0  0  0  0  0  0  0  0
    6.0183    0.5392    0.3523 C   0  0  0  0  0  0  0  0  0  0  0  0
    5.2248    0.8303    1.0533 H   0  0  0  0  0  0  0  0  0  0  0  0
    6.1272   -0.5488    0.4226 H   0  0  0  0  0  0  0  0  0  0  0  0
    7.3200    1.2101    0.7628 C   0  0  0  0  0  0  0  0  0  0  0  0
    7.5501    0.9663    1.8048 H   0  0  0  0  0  0  0  0  0  0  0  0
    8.1599    0.8647    0.1492 H   0  0  0  0  0  0  0  0  0  0  0  0
    7.2141    2.6279    0.6640 O   0  0  0  0  0  0  0  0  0  0  0  0
    6.9654    3.0566   -0.6729 C   0  0  0  0  0  0  0  0  0  0  0  0
    7.8049    2.7629   -1.3136 H   0  0  0  0  0  0  0  0  0  0  0  0
    6.9205    4.1505   -0.6679 H   0  0  0  0  0  0  0  0  0  0  0  0
    5.6523    2.4907   -1.1840 C   0  0  0  0  0  0  0  0  0  0  0  0
    5.4815    2.8010   -2.2214 H   0  0  0  0  0  0  0  0  0  0  0  0
    4.8346    2.9167   -0.5867 H   0  0  0  0  0  0  0  0  0  0  0  0
    2.6884   -1.2220   -1.1930 N   0  0  0  0  0  0  0  0  0  0  0  0
    2.4242   -2.5431   -1.2517 C   0  0  0  0  0  0  0  0  0  0  0  0
    3.3813   -3.4883   -1.5613 C   0  0  0  0  0  0  0  0  0  0  0  0
    3.0390   -4.8965   -1.6793 C   0  0  0  0  0  0  0  0  0  0  0  0
    3.7868   -5.5887   -2.0505 H   0  0  0  0  0  0  0  0  0  0  0  0
    1.7995   -5.3174   -1.3893 C   0  0  0  0  0  0  0  0  0  0  0  0
    1.4937   -6.6704   -1.5505 O   0  0  0  0  0  0  0  0  0  0  0  0
    0.2160   -7.0569   -1.8853 C   0  0  0  0  0  0  0  0  0  0  0  0
   -0.6217   -6.3545   -2.7600 C   0  0  0  0  0  0  0  0  0  0  0  0
   -0.1956   -5.2376   -3.3693 F   0  0  0  0  0  0  0  0  0  0  0  0
   -1.9161   -6.7929   -3.0162 C   0  0  0  0  0  0  0  0  0  0  0  0
   -2.5734   -6.2198   -3.6587 H   0  0  0  0  0  0  0  0  0  0  0  0
   -2.3551   -7.9717   -2.4296 C   0  0  0  0  0  0  0  0  0  0  0  0
   -3.6005   -8.4027   -2.6688 F   0  0  0  0  0  0  0  0  0  0  0  0
   -1.5189   -8.7207   -1.6063 C   0  0  0  0  0  0  0  0  0  0  0  0
   -1.8828   -9.6474   -1.1727 H   0  0  0  0  0  0  0  0  0  0  0  0
   -0.2275   -8.2632   -1.3341 C   0  0  0  0  0  0  0  0  0  0  0  0
    0.4231   -8.8388   -0.6805 H   0  0  0  0  0  0  0  0  0  0  0  0
    0.8016   -4.3311   -0.8233 C   0  0  0  0  0  0  0  0  0  0  0  0
   -0.2386   -4.7267   -0.2906 O   0  0  0  0  0  0  0  0  0  0  0  0
    1.1164   -2.9855   -0.9409 N   0  0  0  0  0  0  0  0  0  0  0  0
    0.0715   -2.0062   -0.5777 C   0  0  0  0  0  0  0  0  0  0  0  0
   -0.8556   -2.5987   -0.5859 H   0  0  0  0  0  0  0  0  0  0  0  0
   -0.2640   -0.9157   -1.6145 C   0  0  0  0  0  0  0  0  0  0  0  0
   -1.3067   -0.6173   -1.4313 H   0  0  0  0  0  0  0  0  0  0  0  0
   -0.2526   -1.3430   -2.6248 H   0  0  0  0  0  0  0  0  0  0  0  0
    0.5457    0.3659   -1.6032 C   0  0  0  0  0  0  0  0  0  0  0  0
    0.0021    1.1459   -2.1498 H   0  0  0  0  0  0  0  0  0  0  0  0
    1.4874    0.2646   -2.1384 H   0  0  0  0  0  0  0  0  0  0  0  0
    0.8469    1.0275    0.0205 S   0  0  0  0  0  0  0  0  0  0  0  0
    2.0915    1.7758   -0.0355 O   0  0  0  0  0  0  0  0  0  0  0  0
   -0.3782    1.6699    0.4529 O   0  0  0  0  0  0  0  0  0  0  0  0
    1.1154   -0.3624    1.1040 C   0  0  0  0  0  0  0  0  0  0  0  0
    2.1531   -0.6861    1.0289 H   0  0  0  0  0  0  0  0  0  0  0  0
    0.9891    0.0202    2.1231 H   0  0  0  0  0  0  0  0  0  0  0  0
    0.1422   -1.4956    0.8664 C   0  0  0  0  0  0  0  0  0  0  0  0
   -0.8592   -1.1414    1.1462 H   0  0  0  0  0  0  0  0  0  0  0  0
    0.3746   -2.3228    1.5478 H   0  0  0  0  0  0  0  0  0  0  0  0
  1  2  1  0  0  0  0
  2  3  2  0  0  0  0
  2 24  1  0  0  0  0
  3  4  1  0  0  0  0
  4  5  1  0  0  0  0
  4 22  2  0  0  0  0
  5  6  1  0  0  0  0
  5  7  1  0  0  0  0
  7  8  1  0  0  0  0
  7  9  1  0  0  0  0
  7 19  1  0  0  0  0
  9 10  1  0  0  0  0
  9 11  1  0  0  0  0
  9 12  1  0  0  0  0
 12 13  1  0  0  0  0
 12 14  1  0  0  0  0
 12 15  1  0  0  0  0
 15 16  1  0  0  0  0
 16 17  1  0  0  0  0
 16 18  1  0  0  0  0
 16 19  1  0  0  0  0
 19 20  1  0  0  0  0
 19 21  1  0  0  0  0
 22 23  1  0  0  0  0
 23 24  2  0  0  0  0
 23 42  1  0  0  0  0
 24 25  1  0  0  0  0
 25 26  1  0  0  0  0
 25 27  2  0  0  0  0
 27 28  1  0  0  0  0
 27 40  1  0  0  0  0
 28 29  1  0  0  0  0
 29 30  2  0  0  0  0
 29 38  1  0  0  0  0
 30 31  1  0  0  0  0
 30 32  1  0  0  0  0
 32 33  1  0  0  0  0
 32 34  2  0  0  0  0
 34 35  1  0  0  0  0
 34 36  1  0  0  0  0
 36 37  1  0  0  0  0
 36 38  2  0  0  0  0
 38 39  1  0  0  0  0
 40 41  2  0  0  0  0
 40 42  1  0  0  0  0
 42 43  1  0  0  0  0
 43 44  1  0  0  0  0
 43 45  1  0  0  0  0
 43 57  1  0  0  0  0
 45 46  1  0  0  0  0
 45 47  1  0  0  0  0
 45 48  1  0  0  0  0
 48 49  1  0  0  0  0
 48 50  1  0  0  0  0
 48 51  1  0  0  0  0
 51 52  2  0  0  0  0
 51 53  2  0  0  0  0
 51 54  1  0  0  0  0
 54 55  1  0  0  0  0
 54 56  1  0  0  0  0
 54 57  1  0  0  0  0
 57 58  1  0  0  0  0
 57 59  1  0  0  0  0
M  END
$$$$
