lig_p38a_2ee
 OpenBabel01042522153D

 52 55  0  0  0  0  0  0  0  0999 V2000
    5.4822   -3.6280   -2.0263 H   0  0  0  0  0  0  0  0  0  0  0  0
    4.6433   -2.9834   -1.7790 C   0  0  0  0  0  0  0  0  0  0  0  0
    4.9457   -1.6717   -1.7041 N   0  0  0  0  0  0  0  0  0  0  0  0
    3.9452   -0.8264   -1.4274 C   0  0  0  0  0  0  0  0  0  0  0  0
    4.2746    0.5186   -1.3924 N   0  0  0  0  0  0  0  0  0  0  0  0
    5.1094    0.6428   -1.9527 H   0  0  0  0  0  0  0  0  0  0  0  0
    3.2133    1.5121   -1.4926 C   0  0  0  0  0  0  0  0  0  0  0  0
    2.3573    1.0985   -2.0421 H   0  0  0  0  0  0  0  0  0  0  0  0
    3.6892    2.7373   -2.2795 C   0  0  0  0  0  0  0  0  0  0  0  0
    4.1125    2.4352   -3.2450 H   0  0  0  0  0  0  0  0  0  0  0  0
    2.8162    3.3661   -2.4993 H   0  0  0  0  0  0  0  0  0  0  0  0
    4.7064    3.5789   -1.5185 C   0  0  0  0  0  0  0  0  0  0  0  0
    5.6657    3.0532   -1.4396 H   0  0  0  0  0  0  0  0  0  0  0  0
    4.8929    4.4995   -2.0840 H   0  0  0  0  0  0  0  0  0  0  0  0
    4.2747    3.9019   -0.1627 N   0  0  0  0  0  0  0  0  0  0  0  0
    4.8137    5.0559    0.4059 C   0  0  0  0  0  0  0  0  0  0  0  0
    5.4926    5.8586   -0.2318 O   0  0  0  0  0  0  0  0  0  0  0  0
    4.5122    5.3168    1.8610 C   0  0  0  0  0  0  0  0  0  0  0  0
    3.4333    5.3977    2.0130 H   0  0  0  0  0  0  0  0  0  0  0  0
    4.9341    4.5267    2.4875 H   0  0  0  0  0  0  0  0  0  0  0  0
    4.9715    6.2652    2.1621 H   0  0  0  0  0  0  0  0  0  0  0  0
    3.7983    2.7724    0.6372 C   0  0  0  0  0  0  0  0  0  0  0  0
    3.3659    3.1243    1.5776 H   0  0  0  0  0  0  0  0  0  0  0  0
    4.6744    2.1654    0.8939 H   0  0  0  0  0  0  0  0  0  0  0  0
    2.7510    1.9394   -0.0959 C   0  0  0  0  0  0  0  0  0  0  0  0
    1.8375    2.5394   -0.1987 H   0  0  0  0  0  0  0  0  0  0  0  0
    2.4903    1.0681    0.5158 H   0  0  0  0  0  0  0  0  0  0  0  0
    2.6884   -1.2220   -1.1930 N   0  0  0  0  0  0  0  0  0  0  0  0
    2.4242   -2.5431   -1.2517 C   0  0  0  0  0  0  0  0  0  0  0  0
    3.3813   -3.4883   -1.5613 C   0  0  0  0  0  0  0  0  0  0  0  0
    3.0390   -4.8965   -1.6793 C   0  0  0  0  0  0  0  0  0  0  0  0
    3.7877   -5.5907   -2.0450 H   0  0  0  0  0  0  0  0  0  0  0  0
    1.7995   -5.3174   -1.3893 C   0  0  0  0  0  0  0  0  0  0  0  0
    1.4937   -6.6704   -1.5505 O   0  0  0  0  0  0  0  0  0  0  0  0
    0.2160   -7.0569   -1.8853 C   0  0  0  0  0  0  0  0  0  0  0  0
   -0.6217   -6.3545   -2.7600 C   0  0  0  0  0  0  0  0  0  0  0  0
   -0.1956   -5.2376   -3.3693 F   0  0  0  0  0  0  0  0  0  0  0  0
   -1.9161   -6.7929   -3.0162 C   0  0  0  0  0  0  0  0  0  0  0  0
   -2.5735   -6.2172   -3.6560 H   0  0  0  0  0  0  0  0  0  0  0  0
   -2.3551   -7.9717   -2.4296 C   0  0  0  0  0  0  0  0  0  0  0  0
   -3.6005   -8.4027   -2.6688 F   0  0  0  0  0  0  0  0  0  0  0  0
   -1.5189   -8.7207   -1.6063 C   0  0  0  0  0  0  0  0  0  0  0  0
   -1.8837   -9.6465   -1.1716 H   0  0  0  0  0  0  0  0  0  0  0  0
   -0.2275   -8.2632   -1.3341 C   0  0  0  0  0  0  0  0  0  0  0  0
    0.4226   -8.8335   -0.6761 H   0  0  0  0  0  0  0  0  0  0  0  0
    0.8016   -4.3311   -0.8233 C   0  0  0  0  0  0  0  0  0  0  0  0
   -0.2386   -4.7267   -0.2906 O   0  0  0  0  0  0  0  0  0  0  0  0
    1.1164   -2.9855   -0.9409 N   0  0  0  0  0  0  0  0  0  0  0  0
    0.1273   -1.9841   -0.5900 C   0  0  0  0  0  0  0  0  0  0  0  0
    0.3927   -1.5275    0.3659 H   0  0  0  0  0  0  0  0  0  0  0  0
    0.0815   -1.2224   -1.3762 H   0  0  0  0  0  0  0  0  0  0  0  0
   -0.8698   -2.4286   -0.5061 H   0  0  0  0  0  0  0  0  0  0  0  0
  1  2  1  0  0  0  0
  2  3  2  0  0  0  0
  2 30  1  0  0  0  0
  3  4  1  0  0  0  0
  4  5  1  0  0  0  0
  4 28  2  0  0  0  0
  5  6  1  0  0  0  0
  5  7  1  0  0  0  0
  7  8  1  0  0  0  0
  7  9  1  0  0  0  0
  7 25  1  0  0  0  0
  9 10  1  0  0  0  0
  9 11  1  0  0  0  0
  9 12  1  0  0  0  0
 12 13  1  0  0  0  0
 12 14  1  0  0  0  0
 12 15  1  0  0  0  0
 15 16  1  0  0  0  0
 15 22  1  0  0  0  0
 16 17  2  0  0  0  0
 16 18  1  0  0  0  0
 18 19  1  0  0  0  0
 18 20  1  0  0  0  0
 18 21  1  0  0  0  0
 22 23  1  0  0  0  0
 22 24  1  0  0  0  0
 22 25  1  0  0  0  0
 25 26  1  0  0  0  0
 25 27  1  0  0  0  0
 28 29  1  0  0  0  0
 29 30  2  0  0  0  0
 29 48  1  0  0  0  0
 30 31  1  0  0  0  0
 31 32  1  0  0  0  0
 31 33  2  0  0  0  0
 33 34  1  0  0  0  0
 33 46  1  0  0  0  0
 34 35  1  0  0  0  0
 35 36  2  0  0  0  0
 35 44  1  0  0  0  0
 36 37  1  0  0  0  0
 36 38  1  0  0  0  0
 38 39  1  0  0  0  0
 38 40  2  0  0  0  0
 40 41  1  0  0  0  0
 40 42  1  0  0  0  0
 42 43  1  0  0  0  0
 42 44  2  0  0  0  0
 44 45  1  0  0  0  0
 46 47  2  0  0  0  0
 46 48  1  0  0  0  0
 48 49  1  0  0  0  0
 49 50  1  0  0  0  0
 49 51  1  0  0  0  0
 49 52  1  0  0  0  0
M  END
$$$$
