lig_p38a_2t
 OpenBabel01042522153D

 47 50  0  0  0  0  0  0  0  0999 V2000
    5.4796   -3.6259   -2.0441 H   0  0  0  0  0  0  0  0  0  0  0  0
    4.6433   -2.9834   -1.7790 C   0  0  0  0  0  0  0  0  0  0  0  0
    4.9457   -1.6717   -1.7041 N   0  0  0  0  0  0  0  0  0  0  0  0
    3.9452   -0.8264   -1.4274 C   0  0  0  0  0  0  0  0  0  0  0  0
    4.2746    0.5186   -1.3924 N   0  0  0  0  0  0  0  0  0  0  0  0
    3.5210    1.0245   -0.9444 H   0  0  0  0  0  0  0  0  0  0  0  0
    5.6348    0.9053   -1.0070 C   0  0  0  0  0  0  0  0  0  0  0  0
    6.3582    0.4703   -1.7080 H   0  0  0  0  0  0  0  0  0  0  0  0
    5.9775    0.4519    0.4177 C   0  0  0  0  0  0  0  0  0  0  0  0
    5.1793    0.7644    1.1030 H   0  0  0  0  0  0  0  0  0  0  0  0
    6.0442   -0.6400    0.4761 H   0  0  0  0  0  0  0  0  0  0  0  0
    7.2962    1.0580    0.8752 C   0  0  0  0  0  0  0  0  0  0  0  0
    7.4831    0.7975    1.9220 H   0  0  0  0  0  0  0  0  0  0  0  0
    8.1397    0.6781    0.2868 H   0  0  0  0  0  0  0  0  0  0  0  0
    7.2563    2.4800    0.7832 O   0  0  0  0  0  0  0  0  0  0  0  0
    7.0816    2.9220   -0.5609 C   0  0  0  0  0  0  0  0  0  0  0  0
    7.9240    2.5778   -1.1720 H   0  0  0  0  0  0  0  0  0  0  0  0
    7.1056    4.0168   -0.5550 H   0  0  0  0  0  0  0  0  0  0  0  0
    5.7517    2.4348   -1.1149 C   0  0  0  0  0  0  0  0  0  0  0  0
    5.6394    2.7559   -2.1569 H   0  0  0  0  0  0  0  0  0  0  0  0
    4.9383    2.9037   -0.5450 H   0  0  0  0  0  0  0  0  0  0  0  0
    2.6884   -1.2220   -1.1930 N   0  0  0  0  0  0  0  0  0  0  0  0
    2.4242   -2.5431   -1.2517 C   0  0  0  0  0  0  0  0  0  0  0  0
    3.3813   -3.4883   -1.5613 C   0  0  0  0  0  0  0  0  0  0  0  0
    3.0390   -4.8965   -1.6793 C   0  0  0  0  0  0  0  0  0  0  0  0
    3.7822   -5.5913   -2.0580 H   0  0  0  0  0  0  0  0  0  0  0  0
    1.7995   -5.3174   -1.3893 C   0  0  0  0  0  0  0  0  0  0  0  0
    1.4937   -6.6704   -1.5505 O   0  0  0  0  0  0  0  0  0  0  0  0
    0.2160   -7.0569   -1.8853 C   0  0  0  0  0  0  0  0  0  0  0  0
   -0.6217   -6.3545   -2.7600 C   0  0  0  0  0  0  0  0  0  0  0  0
   -0.1956   -5.2376   -3.3693 F   0  0  0  0  0  0  0  0  0  0  0  0
   -1.9161   -6.7929   -3.0162 C   0  0  0  0  0  0  0  0  0  0  0  0
   -2.5730   -6.2134   -3.6485 H   0  0  0  0  0  0  0  0  0  0  0  0
   -2.3551   -7.9717   -2.4296 C   0  0  0  0  0  0  0  0  0  0  0  0
   -3.6005   -8.4027   -2.6688 F   0  0  0  0  0  0  0  0  0  0  0  0
   -1.5189   -8.7207   -1.6063 C   0  0  0  0  0  0  0  0  0  0  0  0
   -1.8828   -9.6425   -1.1667 H   0  0  0  0  0  0  0  0  0  0  0  0
   -0.2275   -8.2632   -1.3341 C   0  0  0  0  0  0  0  0  0  0  0  0
    0.4175   -8.8360   -0.6743 H   0  0  0  0  0  0  0  0  0  0  0  0
    0.8016   -4.3311   -0.8233 C   0  0  0  0  0  0  0  0  0  0  0  0
   -0.2386   -4.7267   -0.2906 O   0  0  0  0  0  0  0  0  0  0  0  0
    1.1164   -2.9855   -0.9409 N   0  0  0  0  0  0  0  0  0  0  0  0
    0.1273   -1.9841   -0.5900 C   0  0  0  0  0  0  0  0  0  0  0  0
    0.2608   -1.0874   -1.2070 H   0  0  0  0  0  0  0  0  0  0  0  0
   -0.8616   -2.3749   -0.8616 H   0  0  0  0  0  0  0  0  0  0  0  0
    0.1118   -1.6313    0.8402 C   0  0  0  0  0  0  0  0  0  0  0  0
    0.0628   -1.3237    1.9576 N   0  0  0  0  0  0  0  0  0  0  0  0
  1  2  1  0  0  0  0
  2  3  2  0  0  0  0
  2 24  1  0  0  0  0
  3  4  1  0  0  0  0
  4  5  1  0  0  0  0
  4 22  2  0  0  0  0
  5  6  1  0  0  0  0
  5  7  1  0  0  0  0
  7  8  1  0  0  0  0
  7  9  1  0  0  0  0
  7 19  1  0  0  0  0
  9 10  1  0  0  0  0
  9 11  1  0  0  0  0
  9 12  1  0  0  0  0
 12 13  1  0  0  0  0
 12 14  1  0  0  0  0
 12 15  1  0  0  0  0
 15 16  1  0  0  0  0
 16 17  1  0  0  0  0
 16 18  1  0  0  0  0
 16 19  1  0  0  0  0
 19 20  1  0  0  0  0
 19 21  1  0  0  0  0
 22 23  1  0  0  0  0
 23 24  2  0  0  0  0
 23 42  1  0  0  0  0
 24 25  1  0  0  0  0
 25 26  1  0  0  0  0
 25 27  2  0  0  0  0
 27 28  1  0  0  0  0
 27 40  1  0  0  0  0
 28 29  1  0  0  0  0
 29 30  2  0  0  0  0
 29 38  1  0  0  0  0
 30 31  1  0  0  0  0
 30 32  1  0  0  0  0
 32 33  1  0  0  0  0
 32 34  2  0  0  0  0
 34 35  1  0  0  0  0
 34 36  1  0  0  0  0
 36 37  1  0  0  0  0
 36 38  2  0  0  0  0
 38 39  1  0  0  0  0
 40 41  2  0  0  0  0
 40 42  1  0  0  0  0
 42 43  1  0  0  0  0
 43 44  1  0  0  0  0
 43 45  1  0  0  0  0
 43 46  1  0  0  0  0
 46 47  3  0  0  0  0
M  END
$$$$
