lig_p38a_2r
 OpenBabel01042522153D

 56 59  0  0  0  0  0  0  0  0999 V2000
   -2.4834   -2.7993   -2.4522 H   0  0  0  0  0  0  0  0  0  0  0  0
   -1.8016   -2.9589   -1.7796 O   0  0  0  0  0  0  0  0  0  0  0  0
   -1.0021   -1.7775   -1.6462 C   0  0  0  0  0  0  0  0  0  0  0  0
   -0.4533   -1.4311   -3.0342 C   0  0  0  0  0  0  0  0  0  0  0  0
   -1.2045   -0.9071   -3.6356 H   0  0  0  0  0  0  0  0  0  0  0  0
    0.4310   -0.7879   -2.9775 H   0  0  0  0  0  0  0  0  0  0  0  0
   -0.1973   -2.3370   -3.5942 H   0  0  0  0  0  0  0  0  0  0  0  0
   -1.9548   -0.6801   -1.1491 C   0  0  0  0  0  0  0  0  0  0  0  0
   -2.4968   -1.0174   -0.2576 H   0  0  0  0  0  0  0  0  0  0  0  0
   -1.4230    0.2455   -0.9082 H   0  0  0  0  0  0  0  0  0  0  0  0
   -2.7217   -0.4521   -1.8987 H   0  0  0  0  0  0  0  0  0  0  0  0
    0.1273   -1.9841   -0.5900 C   0  0  0  0  0  0  0  0  0  0  0  0
    0.6125   -1.0207   -0.4006 H   0  0  0  0  0  0  0  0  0  0  0  0
   -0.3275   -2.2966    0.3582 H   0  0  0  0  0  0  0  0  0  0  0  0
    1.1164   -2.9855   -0.9409 N   0  0  0  0  0  0  0  0  0  0  0  0
    0.8016   -4.3311   -0.8233 C   0  0  0  0  0  0  0  0  0  0  0  0
   -0.2386   -4.7267   -0.2906 O   0  0  0  0  0  0  0  0  0  0  0  0
    1.7995   -5.3174   -1.3893 C   0  0  0  0  0  0  0  0  0  0  0  0
    1.4937   -6.6704   -1.5505 O   0  0  0  0  0  0  0  0  0  0  0  0
    0.2160   -7.0569   -1.8853 C   0  0  0  0  0  0  0  0  0  0  0  0
   -0.6217   -6.3545   -2.7600 C   0  0  0  0  0  0  0  0  0  0  0  0
   -0.1956   -5.2376   -3.3693 F   0  0  0  0  0  0  0  0  0  0  0  0
   -1.9161   -6.7929   -3.0162 C   0  0  0  0  0  0  0  0  0  0  0  0
   -2.5706   -6.2218   -3.6622 H   0  0  0  0  0  0  0  0  0  0  0  0
   -2.3551   -7.9717   -2.4296 C   0  0  0  0  0  0  0  0  0  0  0  0
   -3.6005   -8.4027   -2.6688 F   0  0  0  0  0  0  0  0  0  0  0  0
   -1.5189   -8.7207   -1.6063 C   0  0  0  0  0  0  0  0  0  0  0  0
   -1.8808   -9.6488   -1.1751 H   0  0  0  0  0  0  0  0  0  0  0  0
   -0.2275   -8.2632   -1.3341 C   0  0  0  0  0  0  0  0  0  0  0  0
    0.4275   -8.8407   -0.6871 H   0  0  0  0  0  0  0  0  0  0  0  0
    3.0390   -4.8965   -1.6793 C   0  0  0  0  0  0  0  0  0  0  0  0
    3.7892   -5.5879   -2.0446 H   0  0  0  0  0  0  0  0  0  0  0  0
    3.3813   -3.4883   -1.5613 C   0  0  0  0  0  0  0  0  0  0  0  0
    2.4242   -2.5431   -1.2517 C   0  0  0  0  0  0  0  0  0  0  0  0
    2.6884   -1.2220   -1.1930 N   0  0  0  0  0  0  0  0  0  0  0  0
    3.9452   -0.8264   -1.4274 C   0  0  0  0  0  0  0  0  0  0  0  0
    4.2746    0.5186   -1.3924 N   0  0  0  0  0  0  0  0  0  0  0  0
    3.5158    1.0310   -0.9585 H   0  0  0  0  0  0  0  0  0  0  0  0
    5.6293    0.9473   -1.0594 C   0  0  0  0  0  0  0  0  0  0  0  0
    6.3818    0.2361   -1.4249 H   0  0  0  0  0  0  0  0  0  0  0  0
    5.7898    1.1045    0.4574 C   0  0  0  0  0  0  0  0  0  0  0  0
    4.9561    1.7027    0.8502 H   0  0  0  0  0  0  0  0  0  0  0  0
    5.7477    0.1291    0.9548 H   0  0  0  0  0  0  0  0  0  0  0  0
    7.0972    1.8077    0.7993 C   0  0  0  0  0  0  0  0  0  0  0  0
    7.1413    2.0084    1.8750 H   0  0  0  0  0  0  0  0  0  0  0  0
    7.9666    1.1909    0.5447 H   0  0  0  0  0  0  0  0  0  0  0  0
    7.1913    3.0608    0.1249 O   0  0  0  0  0  0  0  0  0  0  0  0
    7.1941    2.9053   -1.2923 C   0  0  0  0  0  0  0  0  0  0  0  0
    8.0584    2.3021   -1.5937 H   0  0  0  0  0  0  0  0  0  0  0  0
    7.3155    3.8993   -1.7358 H   0  0  0  0  0  0  0  0  0  0  0  0
    5.8868    2.2876   -1.7599 C   0  0  0  0  0  0  0  0  0  0  0  0
    5.9013    2.1527   -2.8477 H   0  0  0  0  0  0  0  0  0  0  0  0
    5.0652    2.9799   -1.5316 H   0  0  0  0  0  0  0  0  0  0  0  0
    4.9457   -1.6717   -1.7041 N   0  0  0  0  0  0  0  0  0  0  0  0
    4.6433   -2.9834   -1.7790 C   0  0  0  0  0  0  0  0  0  0  0  0
    5.4824   -3.6279   -2.0266 H   0  0  0  0  0  0  0  0  0  0  0  0
  1  2  1  0  0  0  0
  2  3  1  0  0  0  0
  3  4  1  0  0  0  0
  3  8  1  0  0  0  0
  3 12  1  0  0  0  0
  4  5  1  0  0  0  0
  4  6  1  0  0  0  0
  4  7  1  0  0  0  0
  8  9  1  0  0  0  0
  8 10  1  0  0  0  0
  8 11  1  0  0  0  0
 12 13  1  0  0  0  0
 12 14  1  0  0  0  0
 12 15  1  0  0  0  0
 15 16  1  0  0  0  0
 15 34  1  0  0  0  0
 16 17  2  0  0  0  0
 16 18  1  0  0  0  0
 18 19  1  0  0  0  0
 18 31  2  0  0  0  0
 19 20  1  0  0  0  0
 20 21  2  0  0  0  0
 20 29  1  0  0  0  0
 21 22  1  0  0  0  0
 21 23  1  0  0  0  0
 23 24  1  0  0  0  0
 23 25  2  0  0  0  0
 25 26  1  0  0  0  0
 25 27  1  0  0  0  0
 27 28  1  0  0  0  0
 27 29  2  0  0  0  0
 29 30  1  0  0  0  0
 31 32  1  0  0  0  0
 31 33  1  0  0  0  0
 33 34  2  0  0  0  0
 33 55  1  0  0  0  0
 34 35  1  0  0  0  0
 35 36  2  0  0  0  0
 36 37  1  0  0  0  0
 36 54  1  0  0  0  0
 37 38  1  0  0  0  0
 37 39  1  0  0  0  0
 39 40  1  0  0  0  0
 39 41  1  0  0  0  0
 39 51  1  0  0  0  0
 41 42  1  0  0  0  0
 41 43  1  0  0  0  0
 41 44  1  0  0  0  0
 44 45  1  0  0  0  0
 44 46  1  0  0  0  0
 44 47  1  0  0  0  0
 47 48  1  0  0  0  0
 48 49  1  0  0  0  0
 48 50  1  0  0  0  0
 48 51  1  0  0  0  0
 51 52  1  0  0  0  0
 51 53  1  0  0  0  0
 54 55  2  0  0  0  0
 55 56  1  0  0  0  0
M  END
$$$$
