lig_p38a_2f
 OpenBabel01042522153D

 46 49  0  0  0  0  0  0  0  0999 V2000
    5.4849   -3.6271   -2.0168 H   0  0  0  0  0  0  0  0  0  0  0  0
    4.6433   -2.9834   -1.7790 C   0  0  0  0  0  0  0  0  0  0  0  0
    4.9457   -1.6717   -1.7041 N   0  0  0  0  0  0  0  0  0  0  0  0
    3.9452   -0.8264   -1.4274 C   0  0  0  0  0  0  0  0  0  0  0  0
    4.2746    0.5186   -1.3924 N   0  0  0  0  0  0  0  0  0  0  0  0
    5.1289    0.7251   -1.8910 H   0  0  0  0  0  0  0  0  0  0  0  0
    3.2469    1.5332   -1.2427 C   0  0  0  0  0  0  0  0  0  0  0  0
    2.4322    1.1679   -0.6021 H   0  0  0  0  0  0  0  0  0  0  0  0
    2.6614    1.9410   -2.5946 C   0  0  0  0  0  0  0  0  0  0  0  0
    3.4733    2.2195   -3.2778 H   0  0  0  0  0  0  0  0  0  0  0  0
    2.1223    1.1052   -3.0557 H   0  0  0  0  0  0  0  0  0  0  0  0
    1.7228    3.1284   -2.4206 C   0  0  0  0  0  0  0  0  0  0  0  0
    1.3809    3.4811   -3.3988 H   0  0  0  0  0  0  0  0  0  0  0  0
    0.8334    2.8550   -1.8405 H   0  0  0  0  0  0  0  0  0  0  0  0
    2.3910    4.2138   -1.7787 O   0  0  0  0  0  0  0  0  0  0  0  0
    2.8381    3.8730   -0.4674 C   0  0  0  0  0  0  0  0  0  0  0  0
    1.9763    3.6051    0.1554 H   0  0  0  0  0  0  0  0  0  0  0  0
    3.2988    4.7630   -0.0274 H   0  0  0  0  0  0  0  0  0  0  0  0
    3.8529    2.7438   -0.5302 C   0  0  0  0  0  0  0  0  0  0  0  0
    4.1761    2.4689    0.4808 H   0  0  0  0  0  0  0  0  0  0  0  0
    4.7426    3.0833   -1.0754 H   0  0  0  0  0  0  0  0  0  0  0  0
    2.6884   -1.2220   -1.1930 N   0  0  0  0  0  0  0  0  0  0  0  0
    2.4242   -2.5431   -1.2517 C   0  0  0  0  0  0  0  0  0  0  0  0
    3.3813   -3.4883   -1.5613 C   0  0  0  0  0  0  0  0  0  0  0  0
    3.0390   -4.8965   -1.6793 C   0  0  0  0  0  0  0  0  0  0  0  0
    3.7936   -5.5929   -2.0253 H   0  0  0  0  0  0  0  0  0  0  0  0
    1.7995   -5.3174   -1.3893 C   0  0  0  0  0  0  0  0  0  0  0  0
    1.4937   -6.6704   -1.5505 O   0  0  0  0  0  0  0  0  0  0  0  0
    0.2160   -7.0569   -1.8853 C   0  0  0  0  0  0  0  0  0  0  0  0
   -0.6217   -6.3545   -2.7600 C   0  0  0  0  0  0  0  0  0  0  0  0
   -0.2819   -5.4340   -3.2248 H   0  0  0  0  0  0  0  0  0  0  0  0
   -1.9161   -6.7929   -3.0162 C   0  0  0  0  0  0  0  0  0  0  0  0
   -2.5835   -6.2201   -3.6546 H   0  0  0  0  0  0  0  0  0  0  0  0
   -2.3551   -7.9717   -2.4296 C   0  0  0  0  0  0  0  0  0  0  0  0
   -3.3681   -8.3111   -2.6192 H   0  0  0  0  0  0  0  0  0  0  0  0
   -1.5189   -8.7207   -1.6063 C   0  0  0  0  0  0  0  0  0  0  0  0
   -1.9366   -9.8737   -1.0669 F   0  0  0  0  0  0  0  0  0  0  0  0
   -0.2275   -8.2632   -1.3341 C   0  0  0  0  0  0  0  0  0  0  0  0
    0.4192   -8.8398   -0.6822 H   0  0  0  0  0  0  0  0  0  0  0  0
    0.8016   -4.3311   -0.8233 C   0  0  0  0  0  0  0  0  0  0  0  0
   -0.2386   -4.7267   -0.2906 O   0  0  0  0  0  0  0  0  0  0  0  0
    1.1164   -2.9855   -0.9409 N   0  0  0  0  0  0  0  0  0  0  0  0
    0.1273   -1.9841   -0.5900 C   0  0  0  0  0  0  0  0  0  0  0  0
    0.4197   -1.4952    0.3432 H   0  0  0  0  0  0  0  0  0  0  0  0
    0.0569   -1.2447   -1.3960 H   0  0  0  0  0  0  0  0  0  0  0  0
   -0.8626   -2.4297   -0.4588 H   0  0  0  0  0  0  0  0  0  0  0  0
  1  2  1  0  0  0  0
  2  3  2  0  0  0  0
  2 24  1  0  0  0  0
  3  4  1  0  0  0  0
  4  5  1  0  0  0  0
  4 22  2  0  0  0  0
  5  6  1  0  0  0  0
  5  7  1  0  0  0  0
  7  8  1  0  0  0  0
  7  9  1  0  0  0  0
  7 19  1  0  0  0  0
  9 10  1  0  0  0  0
  9 11  1  0  0  0  0
  9 12  1  0  0  0  0
 12 13  1  0  0  0  0
 12 14  1  0  0  0  0
 12 15  1  0  0  0  0
 15 16  1  0  0  0  0
 16 17  1  0  0  0  0
 16 18  1  0  0  0  0
 16 19  1  0  0  0  0
 19 20  1  0  0  0  0
 19 21  1  0  0  0  0
 22 23  1  0  0  0  0
 23 24  2  0  0  0  0
 23 42  1  0  0  0  0
 24 25  1  0  0  0  0
 25 26  1  0  0  0  0
 25 27  2  0  0  0  0
 27 28  1  0  0  0  0
 27 40  1  0  0  0  0
 28 29  1  0  0  0  0
 29 30  2  0  0  0  0
 29 38  1  0  0  0  0
 30 31  1  0  0  0  0
 30 32  1  0  0  0  0
 32 33  1  0  0  0  0
 32 34  2  0  0  0  0
 34 35  1  0  0  0  0
 34 36  1  0  0  0  0
 36 37  1  0  0  0  0
 36 38  2  0  0  0  0
 38 39  1  0  0  0  0
 40 41  2  0  0  0  0
 40 42  1  0  0  0  0
 42 43  1  0  0  0  0
 43 44  1  0  0  0  0
 43 45  1  0  0  0  0
 43 46  1  0  0  0  0
M  END
$$$$
