lig_p38a_2n
 OpenBabel01042522153D

 53 56  0  0  0  0  0  0  0  0999 V2000
   -2.0290    1.1164   -0.5303 H   0  0  0  0  0  0  0  0  0  0  0  0
   -1.2900    0.5387   -0.7875 O   0  0  0  0  0  0  0  0  0  0  0  0
   -1.8558   -0.6324   -1.3603 C   0  0  0  0  0  0  0  0  0  0  0  0
   -2.5201   -1.0953   -0.6240 H   0  0  0  0  0  0  0  0  0  0  0  0
   -2.4470   -0.3406   -2.2333 H   0  0  0  0  0  0  0  0  0  0  0  0
   -0.7549   -1.5949   -1.7759 C   0  0  0  0  0  0  0  0  0  0  0  0
   -1.2035   -2.4896   -2.2233 H   0  0  0  0  0  0  0  0  0  0  0  0
   -0.1353   -1.1257   -2.5487 H   0  0  0  0  0  0  0  0  0  0  0  0
    0.1273   -1.9841   -0.5900 C   0  0  0  0  0  0  0  0  0  0  0  0
    0.6332   -1.1141   -0.1540 H   0  0  0  0  0  0  0  0  0  0  0  0
   -0.5060   -2.3892    0.2084 H   0  0  0  0  0  0  0  0  0  0  0  0
    1.1164   -2.9855   -0.9409 N   0  0  0  0  0  0  0  0  0  0  0  0
    0.8016   -4.3311   -0.8233 C   0  0  0  0  0  0  0  0  0  0  0  0
   -0.2386   -4.7267   -0.2906 O   0  0  0  0  0  0  0  0  0  0  0  0
    1.7995   -5.3174   -1.3893 C   0  0  0  0  0  0  0  0  0  0  0  0
    1.4937   -6.6704   -1.5505 O   0  0  0  0  0  0  0  0  0  0  0  0
    0.2160   -7.0569   -1.8853 C   0  0  0  0  0  0  0  0  0  0  0  0
   -0.2275   -8.2632   -1.3341 C   0  0  0  0  0  0  0  0  0  0  0  0
    0.4058   -8.8475   -0.6750 H   0  0  0  0  0  0  0  0  0  0  0  0
   -1.5189   -8.7207   -1.6063 C   0  0  0  0  0  0  0  0  0  0  0  0
   -1.8790   -9.6539   -1.1832 H   0  0  0  0  0  0  0  0  0  0  0  0
   -2.3551   -7.9717   -2.4296 C   0  0  0  0  0  0  0  0  0  0  0  0
   -3.6005   -8.4027   -2.6688 F   0  0  0  0  0  0  0  0  0  0  0  0
   -1.9161   -6.7929   -3.0162 C   0  0  0  0  0  0  0  0  0  0  0  0
   -2.5703   -6.2214   -3.6640 H   0  0  0  0  0  0  0  0  0  0  0  0
   -0.6217   -6.3545   -2.7600 C   0  0  0  0  0  0  0  0  0  0  0  0
   -0.1956   -5.2376   -3.3693 F   0  0  0  0  0  0  0  0  0  0  0  0
    3.0390   -4.8965   -1.6793 C   0  0  0  0  0  0  0  0  0  0  0  0
    3.7955   -5.5979   -2.0131 H   0  0  0  0  0  0  0  0  0  0  0  0
    3.3813   -3.4883   -1.5613 C   0  0  0  0  0  0  0  0  0  0  0  0
    2.4242   -2.5431   -1.2517 C   0  0  0  0  0  0  0  0  0  0  0  0
    2.6884   -1.2220   -1.1930 N   0  0  0  0  0  0  0  0  0  0  0  0
    3.9452   -0.8264   -1.4274 C   0  0  0  0  0  0  0  0  0  0  0  0
    4.2746    0.5186   -1.3924 N   0  0  0  0  0  0  0  0  0  0  0  0
    3.5380    1.0127   -0.9000 H   0  0  0  0  0  0  0  0  0  0  0  0
    5.6484    0.8997   -1.0938 C   0  0  0  0  0  0  0  0  0  0  0  0
    6.3339    0.4159   -1.8032 H   0  0  0  0  0  0  0  0  0  0  0  0
    6.0380    0.5117    0.3355 C   0  0  0  0  0  0  0  0  0  0  0  0
    5.2872    0.9012    1.0350 H   0  0  0  0  0  0  0  0  0  0  0  0
    6.0586   -0.5769    0.4568 H   0  0  0  0  0  0  0  0  0  0  0  0
    7.3999    1.0880    0.6878 C   0  0  0  0  0  0  0  0  0  0  0  0
    7.6337    0.8733    1.7354 H   0  0  0  0  0  0  0  0  0  0  0  0
    8.1941    0.6452    0.0750 H   0  0  0  0  0  0  0  0  0  0  0  0
    7.4051    2.5042    0.5224 O   0  0  0  0  0  0  0  0  0  0  0  0
    7.1628    2.8871   -0.8301 C   0  0  0  0  0  0  0  0  0  0  0  0
    7.9573    2.4870   -1.4709 H   0  0  0  0  0  0  0  0  0  0  0  0
    7.2180    3.9793   -0.8807 H   0  0  0  0  0  0  0  0  0  0  0  0
    5.7894    2.4157   -1.2834 C   0  0  0  0  0  0  0  0  0  0  0  0
    5.6237    2.6908   -2.3317 H   0  0  0  0  0  0  0  0  0  0  0  0
    5.0220    2.9307   -0.6905 H   0  0  0  0  0  0  0  0  0  0  0  0
    4.9457   -1.6717   -1.7041 N   0  0  0  0  0  0  0  0  0  0  0  0
    4.6433   -2.9834   -1.7790 C   0  0  0  0  0  0  0  0  0  0  0  0
    5.4783   -3.6241   -2.0467 H   0  0  0  0  0  0  0  0  0  0  0  0
  1  2  1  0  0  0  0
  2  3  1  0  0  0  0
  3  4  1  0  0  0  0
  3  5  1  0  0  0  0
  3  6  1  0  0  0  0
  6  7  1  0  0  0  0
  6  8  1  0  0  0  0
  6  9  1  0  0  0  0
  9 10  1  0  0  0  0
  9 11  1  0  0  0  0
  9 12  1  0  0  0  0
 12 13  1  0  0  0  0
 12 31  1  0  0  0  0
 13 14  2  0  0  0  0
 13 15  1  0  0  0  0
 15 16  1  0  0  0  0
 15 28  2  0  0  0  0
 16 17  1  0  0  0  0
 17 18  2  0  0  0  0
 17 26  1  0  0  0  0
 18 19  1  0  0  0  0
 18 20  1  0  0  0  0
 20 21  1  0  0  0  0
 20 22  2  0  0  0  0
 22 23  1  0  0  0  0
 22 24  1  0  0  0  0
 24 25  1  0  0  0  0
 24 26  2  0  0  0  0
 26 27  1  0  0  0  0
 28 29  1  0  0  0  0
 28 30  1  0  0  0  0
 30 31  2  0  0  0  0
 30 52  1  0  0  0  0
 31 32  1  0  0  0  0
 32 33  2  0  0  0  0
 33 34  1  0  0  0  0
 33 51  1  0  0  0  0
 34 35  1  0  0  0  0
 34 36  1  0  0  0  0
 36 37  1  0  0  0  0
 36 38  1  0  0  0  0
 36 48  1  0  0  0  0
 38 39  1  0  0  0  0
 38 40  1  0  0  0  0
 38 41  1  0  0  0  0
 41 42  1  0  0  0  0
 41 43  1  0  0  0  0
 41 44  1  0  0  0  0
 44 45  1  0  0  0  0
 45 46  1  0  0  0  0
 45 47  1  0  0  0  0
 45 48  1  0  0  0  0
 48 49  1  0  0  0  0
 48 50  1  0  0  0  0
 51 52  2  0  0  0  0
 52 53  1  0  0  0  0
M  END
$$$$
