lig_p38a_2v
 OpenBabel01042522153D

 35 37  0  0  0  0  0  0  0  0999 V2000
    5.4816   -3.6274   -2.0296 H   0  0  0  0  0  0  0  0  0  0  0  0
    4.6433   -2.9834   -1.7790 C   0  0  0  0  0  0  0  0  0  0  0  0
    4.9457   -1.6717   -1.7041 N   0  0  0  0  0  0  0  0  0  0  0  0
    3.9452   -0.8264   -1.4274 C   0  0  0  0  0  0  0  0  0  0  0  0
    4.2746    0.5186   -1.3924 N   0  0  0  0  0  0  0  0  0  0  0  0
    5.2734    0.5704   -1.2313 H   0  0  0  0  0  0  0  0  0  0  0  0
    3.4420    1.3757   -0.5294 C   0  0  0  0  0  0  0  0  0  0  0  0
    2.4199    1.4584   -0.9149 H   0  0  0  0  0  0  0  0  0  0  0  0
    3.4126    1.0086    0.5024 H   0  0  0  0  0  0  0  0  0  0  0  0
    3.8650    2.3853   -0.5111 H   0  0  0  0  0  0  0  0  0  0  0  0
    2.6884   -1.2220   -1.1930 N   0  0  0  0  0  0  0  0  0  0  0  0
    2.4242   -2.5431   -1.2517 C   0  0  0  0  0  0  0  0  0  0  0  0
    3.3813   -3.4883   -1.5613 C   0  0  0  0  0  0  0  0  0  0  0  0
    3.0390   -4.8965   -1.6793 C   0  0  0  0  0  0  0  0  0  0  0  0
    3.7866   -5.5900   -2.0452 H   0  0  0  0  0  0  0  0  0  0  0  0
    1.7995   -5.3174   -1.3893 C   0  0  0  0  0  0  0  0  0  0  0  0
    1.4937   -6.6704   -1.5505 O   0  0  0  0  0  0  0  0  0  0  0  0
    0.2160   -7.0569   -1.8853 C   0  0  0  0  0  0  0  0  0  0  0  0
   -0.6217   -6.3545   -2.7600 C   0  0  0  0  0  0  0  0  0  0  0  0
   -0.1956   -5.2376   -3.3693 F   0  0  0  0  0  0  0  0  0  0  0  0
   -1.9161   -6.7929   -3.0162 C   0  0  0  0  0  0  0  0  0  0  0  0
   -2.5714   -6.2234   -3.6639 H   0  0  0  0  0  0  0  0  0  0  0  0
   -2.3551   -7.9717   -2.4296 C   0  0  0  0  0  0  0  0  0  0  0  0
   -3.6005   -8.4027   -2.6688 F   0  0  0  0  0  0  0  0  0  0  0  0
   -1.5189   -8.7207   -1.6063 C   0  0  0  0  0  0  0  0  0  0  0  0
   -1.8790   -9.6505   -1.1767 H   0  0  0  0  0  0  0  0  0  0  0  0
   -0.2275   -8.2632   -1.3341 C   0  0  0  0  0  0  0  0  0  0  0  0
    0.4265   -8.8423   -0.6870 H   0  0  0  0  0  0  0  0  0  0  0  0
    0.8016   -4.3311   -0.8233 C   0  0  0  0  0  0  0  0  0  0  0  0
   -0.2386   -4.7267   -0.2906 O   0  0  0  0  0  0  0  0  0  0  0  0
    1.1164   -2.9855   -0.9409 N   0  0  0  0  0  0  0  0  0  0  0  0
    0.1273   -1.9841   -0.5900 C   0  0  0  0  0  0  0  0  0  0  0  0
    0.3968   -1.5283    0.3674 H   0  0  0  0  0  0  0  0  0  0  0  0
    0.0832   -1.2190   -1.3727 H   0  0  0  0  0  0  0  0  0  0  0  0
   -0.8698   -2.4250   -0.4993 H   0  0  0  0  0  0  0  0  0  0  0  0
  1  2  1  0  0  0  0
  2  3  2  0  0  0  0
  2 13  1  0  0  0  0
  3  4  1  0  0  0  0
  4  5  1  0  0  0  0
  4 11  2  0  0  0  0
  5  6  1  0  0  0  0
  5  7  1  0  0  0  0
  7  8  1  0  0  0  0
  7  9  1  0  0  0  0
  7 10  1  0  0  0  0
 11 12  1  0  0  0  0
 12 13  2  0  0  0  0
 12 31  1  0  0  0  0
 13 14  1  0  0  0  0
 14 15  1  0  0  0  0
 14 16  2  0  0  0  0
 16 17  1  0  0  0  0
 16 29  1  0  0  0  0
 17 18  1  0  0  0  0
 18 19  2  0  0  0  0
 18 27  1  0  0  0  0
 19 20  1  0  0  0  0
 19 21  1  0  0  0  0
 21 22  1  0  0  0  0
 21 23  2  0  0  0  0
 23 24  1  0  0  0  0
 23 25  1  0  0  0  0
 25 26  1  0  0  0  0
 25 27  2  0  0  0  0
 27 28  1  0  0  0  0
 29 30  2  0  0  0  0
 29 31  1  0  0  0  0
 31 32  1  0  0  0  0
 32 33  1  0  0  0  0
 32 34  1  0  0  0  0
 32 35  1  0  0  0  0
M  END
$$$$
