R1_6_R2_4
     RDKit          3D

 33 35  0  0  0  0  0  0  0  0999 V2000
    7.5907   -1.7793   -1.9410 C   0  0  0  0  0  0  0  0  0  0  0  0
    7.5137   -3.0197   -3.9512 C   0  0  0  0  0  0  0  0  0  0  0  0
    7.4204   -1.7849   -3.3087 C   0  0  0  0  0  0  0  0  0  0  0  0
    7.7907   -4.1903   -3.2199 C   0  0  0  0  0  0  0  0  0  0  0  0
    7.8250   -2.9347   -1.1887 C   0  0  0  0  0  0  0  0  0  0  0  0
    7.9614   -4.1528   -1.8286 C   0  0  0  0  0  0  0  0  0  0  0  0
    7.9614   -2.5395    0.1653 N   0  0  0  0  0  0  0  0  0  0  0  0
    7.8583   -1.1259    0.2145 C   0  0  0  0  0  0  0  0  0  0  0  0
    7.6052   -0.6851   -1.0897 N   0  0  0  0  0  0  0  0  0  0  0  0
    7.1967   -3.1174   -5.6903 S   0  0  0  0  0  0  0  0  0  0  0  0
    6.5102   -1.9191   -6.1115 O   0  0  0  0  0  0  0  0  0  0  0  0
    6.7185   -4.4416   -6.0080 O   0  0  0  0  0  0  0  0  0  0  0  0
    8.7457   -3.0123   -6.3258 N   0  0  0  0  0  0  0  0  0  0  0  0
    8.8297   -2.1723   -6.8999 H   0  0  0  0  0  0  0  0  0  0  0  0
    8.9742   -3.8716   -6.8275 H   0  0  0  0  0  0  0  0  0  0  0  0
    7.7042   -5.5819    2.3288 C   0  0  0  0  0  0  0  0  0  0  0  0
    8.1403   -3.4132    1.2682 C   0  0  0  0  0  0  0  0  0  0  0  0
    7.5320   -4.6820    1.2702 C   0  0  0  0  0  0  0  0  0  0  0  0
    8.8863   -3.0653    2.4110 C   0  0  0  0  0  0  0  0  0  0  0  0
    8.4866   -5.2292    3.4208 C   0  0  0  0  0  0  0  0  0  0  0  0
    9.0745   -3.9696    3.4617 C   0  0  0  0  0  0  0  0  0  0  0  0
    9.5287   -1.8687    2.5825 O   0  0  0  0  0  0  0  0  0  0  0  0
    6.9328   -7.1234    2.2330 Cl  0  0  0  0  0  0  0  0  0  0  0  0
    6.8610   -4.9798    0.4696 H   0  0  0  0  0  0  0  0  0  0  0  0
    8.6893   -6.1124    4.4435 O   0  0  0  0  0  0  0  0  0  0  0  0
    9.6798   -3.6799    4.3171 H   0  0  0  0  0  0  0  0  0  0  0  0
    8.9737   -1.1653    2.1849 H   0  0  0  0  0  0  0  0  0  0  0  0
    9.2573   -5.7008    5.1157 H   0  0  0  0  0  0  0  0  0  0  0  0
    7.9531   -0.3899    1.1865 O   0  0  0  0  0  0  0  0  0  0  0  0
    7.2362   -0.8751   -3.8673 H   0  0  0  0  0  0  0  0  0  0  0  0
    7.8896   -5.1378   -3.7467 H   0  0  0  0  0  0  0  0  0  0  0  0
    8.2275   -5.0618   -1.3033 H   0  0  0  0  0  0  0  0  0  0  0  0
    7.4945    0.2837   -1.3407 H   0  0  0  0  0  0  0  0  0  0  0  0
 10  2  1  0
 10 11  2  0
 10 12  2  0
 10 13  1  0
 13 14  1  0
 13 15  1  0
 17  7  1  0
 18 16  2  0
 16 20  1  0
 20 21  2  0
 21 19  1  0
 19 17  2  0
 17 18  1  0
 19 22  1  0
 16 23  1  0
 18 24  1  0
 20 25  1  0
 21 26  1  0
 22 27  1  0
 25 28  1  0
  3  1  2  0
  1  5  1  0
  5  6  2  0
  6  4  1  0
  4  2  2  0
  2  3  1  0
  1  9  1  0
  9  8  1  0
  8  7  1  0
  7  5  1  0
  8 29  2  0
  3 30  1  0
  4 31  1  0
  6 32  1  0
  9 33  1  0
M  END
$$$$
