lig_1a
 OpenBabel01052500213D

 52 54  0  0  1  0  0  0  0  0999 V2000
   -7.1335   -4.0823    1.1526 C   0  0  0  0  0  0  0  0  0  0  0  0
   -6.4230   -3.2591    2.0220 C   0  0  0  0  0  0  0  0  0  0  0  0
   -5.7144   -2.1619    1.5277 C   0  0  0  0  0  0  0  0  0  0  0  0
   -5.6922   -1.8835    0.1525 C   0  0  0  0  0  0  0  0  0  0  0  0
   -6.4238   -2.7125   -0.7103 C   0  0  0  0  0  0  0  0  0  0  0  0
   -7.1388   -3.8057   -0.2116 C   0  0  0  0  0  0  0  0  0  0  0  0
   -4.9430   -0.6830   -0.3900 C   0  0  0  0  0  0  0  0  0  0  0  0
   -3.4463   -0.6715   -0.0337 C   0  0  2  0  0  0  0  0  0  0  0  0
   -2.7521    0.6074   -0.5415 C   0  0  0  0  0  0  0  0  0  0  0  0
   -2.1253    0.5346   -1.6040 O   0  0  0  0  0  0  0  0  0  0  0  0
   -2.8309    1.7622    0.1920 N   0  0  0  0  0  0  0  0  0  0  0  0
   -3.5238    2.0033    1.4451 C   0  0  0  0  0  0  0  0  0  0  0  0
   -3.9000    3.4688    1.3358 C   0  0  0  0  0  0  0  0  0  0  0  0
   -2.7048    4.1014    0.6236 C   0  0  0  0  0  0  0  0  0  0  0  0
   -2.0654    2.9620   -0.1912 C   0  0  1  0  0  0  0  0  0  0  0  0
   -0.5713    2.8139    0.1990 C   0  0  0  0  0  0  0  0  0  0  0  0
   -0.1351    1.8002    0.7491 O   0  0  0  0  0  0  0  0  0  0  0  0
    0.2020    3.9218   -0.0806 N   0  0  0  0  0  0  0  0  0  0  0  0
    1.5943    4.0161    0.3022 C   0  0  0  0  0  0  0  0  0  0  0  0
    2.5166    3.6043   -0.8130 C   0  0  0  0  0  0  0  0  0  0  0  0
    2.9789    4.5385   -1.7539 C   0  0  0  0  0  0  0  0  0  0  0  0
    3.8694    4.1527   -2.7619 C   0  0  0  0  0  0  0  0  0  0  0  0
    4.2986    2.8296   -2.8442 C   0  0  0  0  0  0  0  0  0  0  0  0
    3.8252    1.9001   -1.9249 C   0  0  0  0  0  0  0  0  0  0  0  0
    2.9386    2.2718   -0.9214 C   0  0  0  0  0  0  0  0  0  0  0  0
    4.2319    0.6261   -2.0038 F   0  0  0  0  0  0  0  0  0  0  0  0
   -2.7867   -1.8691   -0.6891 N   0  3  0  0  0  0  0  0  0  0  0  0
   -7.7021   -4.9256    1.5416 H   0  0  0  0  0  0  0  0  0  0  0  0
   -6.4450   -3.4627    3.0908 H   0  0  0  0  0  0  0  0  0  0  0  0
   -5.2090   -1.5199    2.2458 H   0  0  0  0  0  0  0  0  0  0  0  0
   -6.4758   -2.5113   -1.7793 H   0  0  0  0  0  0  0  0  0  0  0  0
   -7.7212   -4.4341   -0.8840 H   0  0  0  0  0  0  0  0  0  0  0  0
   -5.4413    0.2198   -0.0206 H   0  0  0  0  0  0  0  0  0  0  0  0
   -5.0516   -0.6445   -1.4828 H   0  0  0  0  0  0  0  0  0  0  0  0
   -3.2574   -0.7892    1.0374 H   0  0  0  0  0  0  0  0  0  0  0  0
   -2.8118    1.8364    2.2614 H   0  0  0  0  0  0  0  0  0  0  0  0
   -4.3845    1.3491    1.5870 H   0  0  0  0  0  0  0  0  0  0  0  0
   -4.1065    3.9301    2.3057 H   0  0  0  0  0  0  0  0  0  0  0  0
   -4.7937    3.5789    0.7096 H   0  0  0  0  0  0  0  0  0  0  0  0
   -2.0151    4.5204    1.3661 H   0  0  0  0  0  0  0  0  0  0  0  0
   -3.0229    4.9258   -0.0237 H   0  0  0  0  0  0  0  0  0  0  0  0
   -2.1397    3.1196   -1.2723 H   0  0  0  0  0  0  0  0  0  0  0  0
   -0.1827    4.6896   -0.6164 H   0  0  0  0  0  0  0  0  0  0  0  0
    1.7804    3.4094    1.1957 H   0  0  0  0  0  0  0  0  0  0  0  0
    1.7883    5.0586    0.5815 H   0  0  0  0  0  0  0  0  0  0  0  0
    2.6662    5.5795   -1.6994 H   0  0  0  0  0  0  0  0  0  0  0  0
    4.2378    4.8860   -3.4754 H   0  0  0  0  0  0  0  0  0  0  0  0
    4.9995    2.5175   -3.6117 H   0  0  0  0  0  0  0  0  0  0  0  0
    2.5926    1.5190   -0.2176 H   0  0  0  0  0  0  0  0  0  0  0  0
   -2.8206   -1.7561   -1.7139 H   0  0  0  0  0  0  0  0  0  0  0  0
   -3.2211   -2.7625   -0.4269 H   0  0  0  0  0  0  0  0  0  0  0  0
   -1.7848   -1.8896   -0.4576 H   0  0  0  0  0  0  0  0  0  0  0  0
  1  2  1  0  0  0  0
  1  6  2  0  0  0  0
  1 28  1  0  0  0  0
  2  3  2  0  0  0  0
  2 29  1  0  0  0  0
  3  4  1  0  0  0  0
  3 30  1  0  0  0  0
  4  5  2  0  0  0  0
  4  7  1  0  0  0  0
  5  6  1  0  0  0  0
  5 31  1  0  0  0  0
  6 32  1  0  0  0  0
  7 33  1  0  0  0  0
  7 34  1  0  0  0  0
  8 27  1  0  0  0  0
  8  9  1  0  0  0  0
  8  7  1  0  0  0  0
  8 35  1  1  0  0  0
  9 10  2  0  0  0  0
  9 11  1  0  0  0  0
 11 12  1  0  0  0  0
 11 15  1  0  0  0  0
 12 13  1  0  0  0  0
 12 36  1  0  0  0  0
 12 37  1  0  0  0  0
 13 14  1  0  0  0  0
 13 38  1  0  0  0  0
 13 39  1  0  0  0  0
 14 15  1  0  0  0  0
 14 40  1  0  0  0  0
 14 41  1  0  0  0  0
 15 16  1  0  0  0  0
 15 42  1  6  0  0  0
 16 17  2  0  0  0  0
 16 18  1  0  0  0  0
 18 19  1  0  0  0  0
 18 43  1  0  0  0  0
 19 20  1  0  0  0  0
 19 44  1  0  0  0  0
 19 45  1  0  0  0  0
 20 21  1  0  0  0  0
 20 25  2  0  0  0  0
 21 22  2  0  0  0  0
 21 46  1  0  0  0  0
 22 23  1  0  0  0  0
 22 47  1  0  0  0  0
 23 24  2  0  0  0  0
 23 48  1  0  0  0  0
 24 25  1  0  0  0  0
 24 26  1  0  0  0  0
 25 49  1  0  0  0  0
 27 50  1  0  0  0  0
 27 51  1  0  0  0  0
 27 52  1  0  0  0  0
M  CHG  1  27   1
M  END
$$$$
