lig_7d
 OpenBabel01052500213D

 60 62  0  0  1  0  0  0  0  0999 V2000
   -2.1253    0.5346   -1.6040 O   0  0  0  0  0  0  0  0  0  0  0  0
   -2.7521    0.6074   -0.5415 C   0  0  0  0  0  0  0  0  0  0  0  0
   -2.8309    1.7622    0.1920 N   0  0  0  0  0  0  0  0  0  0  0  0
   -3.5238    2.0033    1.4451 C   0  0  0  0  0  0  0  0  0  0  0  0
   -3.9000    3.4688    1.3358 C   0  0  0  0  0  0  0  0  0  0  0  0
   -2.7048    4.1014    0.6236 C   0  0  0  0  0  0  0  0  0  0  0  0
   -2.0654    2.9620   -0.1912 C   0  0  1  0  0  0  0  0  0  0  0  0
   -0.5713    2.8139    0.1990 C   0  0  0  0  0  0  0  0  0  0  0  0
    0.1856    3.9384   -0.0220 N   0  0  0  0  0  0  0  0  0  0  0  0
    1.6070    4.0009    0.3000 C   0  0  0  0  0  0  0  0  0  0  0  0
    2.4279    4.8773   -0.6712 C   0  0  3  0  0  0  0  0  0  0  0  0
    2.4791    4.3091   -2.1011 C   0  0  0  0  0  0  0  0  0  0  0  0
    3.3622    5.1567   -3.0206 C   0  0  0  0  0  0  0  0  0  0  0  0
    4.7745    5.3391   -2.4604 C   0  0  0  0  0  0  0  0  0  0  0  0
    4.7424    5.8845   -1.0315 C   0  0  3  0  0  0  0  0  0  0  0  0
    6.1015    5.9562   -0.5009 N   0  0  0  0  0  0  0  0  0  0  0  0
    3.8627    5.0172   -0.1241 C   0  0  0  0  0  0  0  0  0  0  0  0
   -0.1351    1.8002    0.7491 O   0  0  0  0  0  0  0  0  0  0  0  0
   -3.4463   -0.6715   -0.0337 C   0  0  2  0  0  0  0  0  0  0  0  0
   -2.7867   -1.8691   -0.6891 N   0  3  0  0  0  0  0  0  0  0  0  0
   -4.9430   -0.6830   -0.3900 C   0  0  0  0  0  0  0  0  0  0  0  0
   -5.6922   -1.8835    0.1525 C   0  0  0  0  0  0  0  0  0  0  0  0
   -5.7144   -2.1619    1.5277 C   0  0  0  0  0  0  0  0  0  0  0  0
   -6.4230   -3.2591    2.0220 C   0  0  0  0  0  0  0  0  0  0  0  0
   -7.1335   -4.0823    1.1526 C   0  0  0  0  0  0  0  0  0  0  0  0
   -7.1388   -3.8057   -0.2116 C   0  0  0  0  0  0  0  0  0  0  0  0
   -6.4238   -2.7125   -0.7103 C   0  0  0  0  0  0  0  0  0  0  0  0
   -2.8118    1.8364    2.2614 H   0  0  0  0  0  0  0  0  0  0  0  0
   -4.3845    1.3491    1.5870 H   0  0  0  0  0  0  0  0  0  0  0  0
   -4.1065    3.9301    2.3057 H   0  0  0  0  0  0  0  0  0  0  0  0
   -4.7937    3.5789    0.7096 H   0  0  0  0  0  0  0  0  0  0  0  0
   -2.0151    4.5204    1.3661 H   0  0  0  0  0  0  0  0  0  0  0  0
   -3.0229    4.9258   -0.0237 H   0  0  0  0  0  0  0  0  0  0  0  0
   -2.1397    3.1196   -1.2723 H   0  0  0  0  0  0  0  0  0  0  0  0
   -0.2892    4.8334   -0.0845 H   0  0  0  0  0  0  0  0  0  0  0  0
    2.0179    2.9888    0.3448 H   0  0  0  0  0  0  0  0  0  0  0  0
    1.6598    4.4273    1.3075 H   0  0  0  0  0  0  0  0  0  0  0  0
    1.9708    5.8755   -0.7172 H   0  0  0  0  0  0  0  0  0  0  0  0
    1.4715    4.2577   -2.5282 H   0  0  0  0  0  0  0  0  0  0  0  0
    2.8701    3.2849   -2.0799 H   0  0  0  0  0  0  0  0  0  0  0  0
    2.9031    6.1429   -3.1672 H   0  0  0  0  0  0  0  0  0  0  0  0
    3.4255    4.6875   -4.0088 H   0  0  0  0  0  0  0  0  0  0  0  0
    5.3384    6.0196   -3.1122 H   0  0  0  0  0  0  0  0  0  0  0  0
    5.2954    4.3730   -2.4886 H   0  0  0  0  0  0  0  0  0  0  0  0
    4.3349    6.9038   -1.0516 H   0  0  0  0  0  0  0  0  0  0  0  0
    6.5327    5.0328   -0.4905 H   0  0  0  0  0  0  0  0  0  0  0  0
    6.0918    6.2801    0.4650 H   0  0  0  0  0  0  0  0  0  0  0  0
    3.8299    5.4493    0.8826 H   0  0  0  0  0  0  0  0  0  0  0  0
    4.3080    4.0169   -0.0261 H   0  0  0  0  0  0  0  0  0  0  0  0
   -3.2574   -0.7892    1.0374 H   0  0  0  0  0  0  0  0  0  0  0  0
   -2.8206   -1.7561   -1.7139 H   0  0  0  0  0  0  0  0  0  0  0  0
   -3.2211   -2.7625   -0.4269 H   0  0  0  0  0  0  0  0  0  0  0  0
   -1.7848   -1.8896   -0.4576 H   0  0  0  0  0  0  0  0  0  0  0  0
   -5.4413    0.2198   -0.0206 H   0  0  0  0  0  0  0  0  0  0  0  0
   -5.0516   -0.6445   -1.4828 H   0  0  0  0  0  0  0  0  0  0  0  0
   -5.2090   -1.5199    2.2458 H   0  0  0  0  0  0  0  0  0  0  0  0
   -6.4450   -3.4627    3.0908 H   0  0  0  0  0  0  0  0  0  0  0  0
   -7.7021   -4.9256    1.5416 H   0  0  0  0  0  0  0  0  0  0  0  0
   -7.7212   -4.4341   -0.8840 H   0  0  0  0  0  0  0  0  0  0  0  0
   -6.4758   -2.5113   -1.7793 H   0  0  0  0  0  0  0  0  0  0  0  0
  1  2  2  0  0  0  0
  2  3  1  0  0  0  0
  3  4  1  0  0  0  0
  3  7  1  0  0  0  0
  4  5  1  0  0  0  0
  4 28  1  0  0  0  0
  4 29  1  0  0  0  0
  5  6  1  0  0  0  0
  5 30  1  0  0  0  0
  5 31  1  0  0  0  0
  6  7  1  0  0  0  0
  6 32  1  0  0  0  0
  6 33  1  0  0  0  0
  7  8  1  0  0  0  0
  7 34  1  1  0  0  0
  8  9  1  0  0  0  0
  8 18  2  0  0  0  0
  9 10  1  0  0  0  0
  9 35  1  0  0  0  0
 10 11  1  0  0  0  0
 10 36  1  0  0  0  0
 10 37  1  0  0  0  0
 11 12  1  0  0  0  0
 11 17  1  0  0  0  0
 11 38  1  0  0  0  0
 12 13  1  0  0  0  0
 12 39  1  0  0  0  0
 12 40  1  0  0  0  0
 13 14  1  0  0  0  0
 13 41  1  0  0  0  0
 13 42  1  0  0  0  0
 14 15  1  0  0  0  0
 14 43  1  0  0  0  0
 14 44  1  0  0  0  0
 15 16  1  0  0  0  0
 15 17  1  0  0  0  0
 15 45  1  0  0  0  0
 16 46  1  0  0  0  0
 16 47  1  0  0  0  0
 17 48  1  0  0  0  0
 17 49  1  0  0  0  0
 19 21  1  0  0  0  0
 19 20  1  0  0  0  0
 19  2  1  0  0  0  0
 19 50  1  1  0  0  0
 20 51  1  0  0  0  0
 20 52  1  0  0  0  0
 20 53  1  0  0  0  0
 21 22  1  0  0  0  0
 21 54  1  0  0  0  0
 21 55  1  0  0  0  0
 22 23  1  0  0  0  0
 22 27  2  0  0  0  0
 23 24  2  0  0  0  0
 23 56  1  0  0  0  0
 24 25  1  0  0  0  0
 24 57  1  0  0  0  0
 25 26  2  0  0  0  0
 25 58  1  0  0  0  0
 26 27  1  0  0  0  0
 26 59  1  0  0  0  0
 27 60  1  0  0  0  0
M  CHG  1  20   1
M  END
$$$$
