lig_ejm_50
 OpenBabel01052519273D

 33 34  0  0  0  0  0  0  0  0999 V2000
    1.0863   -0.2115    0.4572 H   0  0  0  0  0  0  0  0  0  0  0  0
    2.1575   -0.1302    0.2864 C   0  0  0  0  0  0  0  0  0  0  0  0
    2.9015   -1.2551   -0.0401 C   0  0  0  0  0  0  0  0  0  0  0  0
    4.2847   -1.1603   -0.2697 C   0  0  0  0  0  0  0  0  0  0  0  0
    4.9528    0.0829   -0.1915 C   0  0  0  0  0  0  0  0  0  0  0  0
    4.1815    1.2100    0.1570 C   0  0  0  0  0  0  0  0  0  0  0  0
    2.7996    1.0963    0.3958 C   0  0  0  0  0  0  0  0  0  0  0  0
    2.2097    1.9733    0.6593 H   0  0  0  0  0  0  0  0  0  0  0  0
    4.8140    2.8165    0.3112 Cl  0  0  0  0  0  0  0  0  0  0  0  0
    6.4164    0.1563   -0.5334 C   0  0  0  0  0  0  0  0  0  0  0  0
    6.8515   -0.6030   -1.3962 O   0  0  0  0  0  0  0  0  0  0  0  0
    7.1895    1.0827    0.1444 N   0  0  0  0  0  0  0  0  0  0  0  0
    6.7122    1.7142    0.7792 H   0  0  0  0  0  0  0  0  0  0  0  0
    8.5985    1.2380    0.0640 C   0  0  0  0  0  0  0  0  0  0  0  0
    9.4181    0.4121   -0.7041 C   0  0  0  0  0  0  0  0  0  0  0  0
   10.7838    0.5951   -0.6349 C   0  0  0  0  0  0  0  0  0  0  0  0
   11.3650    1.5154    0.1417 N   0  0  0  0  0  0  0  0  0  0  0  0
   10.5865    2.3232    0.8724 C   0  0  0  0  0  0  0  0  0  0  0  0
    9.1958    2.2366    0.8413 C   0  0  0  0  0  0  0  0  0  0  0  0
    8.5757    2.9138    1.4247 H   0  0  0  0  0  0  0  0  0  0  0  0
   11.2031    3.2646    1.7123 N   0  0  0  0  0  0  0  0  0  0  0  0
   10.6057    3.8867    2.2309 H   0  0  0  0  0  0  0  0  0  0  0  0
   12.5534    3.4215    1.9579 C   0  0  0  0  0  0  0  0  0  0  0  0
   13.4921    2.7963    1.4765 O   0  0  0  0  0  0  0  0  0  0  0  0
   12.8110    4.5244    2.9900 C   0  0  0  0  0  0  0  0  0  0  0  0
   13.3143    4.0733    3.8511 H   0  0  0  0  0  0  0  0  0  0  0  0
   13.4568    5.2808    2.5340 H   0  0  0  0  0  0  0  0  0  0  0  0
   11.6198    5.1601    3.4490 O   0  0  0  0  0  0  0  0  0  0  0  0
   11.9071    5.8179    4.1079 H   0  0  0  0  0  0  0  0  0  0  0  0
   11.4704   -0.0250   -1.2057 H   0  0  0  0  0  0  0  0  0  0  0  0
    9.0493   -0.3831   -1.3359 H   0  0  0  0  0  0  0  0  0  0  0  0
    5.0654   -2.6786   -0.5764 Cl  0  0  0  0  0  0  0  0  0  0  0  0
    2.3993   -2.2187   -0.1144 H   0  0  0  0  0  0  0  0  0  0  0  0
  1  2  1  0  0  0  0
  2  3  1  0  0  0  0
  2  7  2  0  0  0  0
  3  4  2  0  0  0  0
  3 33  1  0  0  0  0
  4  5  1  0  0  0  0
  4 32  1  0  0  0  0
  5  6  2  0  0  0  0
  5 10  1  0  0  0  0
  6  7  1  0  0  0  0
  6  9  1  0  0  0  0
  7  8  1  0  0  0  0
 10 11  2  0  0  0  0
 10 12  1  0  0  0  0
 12 13  1  0  0  0  0
 12 14  1  0  0  0  0
 14 15  1  0  0  0  0
 14 19  2  0  0  0  0
 15 16  2  0  0  0  0
 15 31  1  0  0  0  0
 16 17  1  0  0  0  0
 16 30  1  0  0  0  0
 17 18  2  0  0  0  0
 18 19  1  0  0  0  0
 18 21  1  0  0  0  0
 19 20  1  0  0  0  0
 21 22  1  0  0  0  0
 21 23  1  0  0  0  0
 23 24  2  0  0  0  0
 23 25  1  0  0  0  0
 25 26  1  0  0  0  0
 25 27  1  0  0  0  0
 25 28  1  0  0  0  0
 28 29  1  0  0  0  0
M  END
$$$$
