lig_8b
 OpenBabel01052519193D

 48 51  0  0  0  0  0  0  0  0999 V2000
    5.0952    1.5521   -2.6168 H   0  0  0  0  0  0  0  0  0  0  0  0
    4.4441    1.0342   -1.9161 C   0  0  0  0  0  0  0  0  0  0  0  0
    3.2374    0.5002   -2.3699 C   0  0  0  0  0  0  0  0  0  0  0  0
    2.9638    0.5969   -3.4171 H   0  0  0  0  0  0  0  0  0  0  0  0
    2.3634   -0.1111   -1.4720 C   0  0  0  0  0  0  0  0  0  0  0  0
    1.1362   -0.6208   -1.8642 N   0  0  0  0  0  0  0  0  0  0  0  0
    0.8357   -0.9936   -3.2546 C   0  0  0  0  0  0  0  0  0  0  0  0
    0.5566   -2.0543   -3.2692 H   0  0  0  0  0  0  0  0  0  0  0  0
    1.6881   -0.9047   -3.9332 H   0  0  0  0  0  0  0  0  0  0  0  0
   -0.3391   -0.1549   -3.7940 C   0  0  0  0  0  0  0  0  0  0  0  0
   -0.6326   -0.4962   -4.7916 H   0  0  0  0  0  0  0  0  0  0  0  0
   -0.0969    0.9136   -3.8199 H   0  0  0  0  0  0  0  0  0  0  0  0
   -1.5582   -0.3185   -2.8865 N   0  3  0  0  0  0  0  0  0  0  0  0
   -1.7913   -1.3197   -2.8737 H   0  0  0  0  0  0  0  0  0  0  0  0
   -2.7513    0.4214   -3.4095 C   0  0  0  0  0  0  0  0  0  0  0  0
   -3.5993    0.2017   -2.7559 H   0  0  0  0  0  0  0  0  0  0  0  0
   -2.5270    1.4915   -3.4139 H   0  0  0  0  0  0  0  0  0  0  0  0
   -2.9568    0.0617   -4.4209 H   0  0  0  0  0  0  0  0  0  0  0  0
   -1.2200    0.0786   -1.4510 C   0  0  0  0  0  0  0  0  0  0  0  0
   -1.0291    1.1576   -1.4545 H   0  0  0  0  0  0  0  0  0  0  0  0
   -2.1037   -0.1377   -0.8413 H   0  0  0  0  0  0  0  0  0  0  0  0
    0.0056   -0.7024   -0.9208 C   0  0  0  0  0  0  0  0  0  0  0  0
   -0.2579   -1.7571   -0.7820 H   0  0  0  0  0  0  0  0  0  0  0  0
    0.2352   -0.2917    0.0674 H   0  0  0  0  0  0  0  0  0  0  0  0
    2.7057   -0.2185   -0.1250 C   0  0  0  0  0  0  0  0  0  0  0  0
    2.0171   -0.6813    0.5773 H   0  0  0  0  0  0  0  0  0  0  0  0
    3.9112    0.3138    0.3337 C   0  0  0  0  0  0  0  0  0  0  0  0
    4.1309    0.2639    1.3975 H   0  0  0  0  0  0  0  0  0  0  0  0
    4.7767    0.9653   -0.5572 C   0  0  0  0  0  0  0  0  0  0  0  0
    5.9252    1.7653   -0.0581 C   0  0  0  0  0  0  0  0  0  0  0  0
    6.6583    2.4902   -0.8493 N   0  0  0  0  0  0  0  0  0  0  0  0
    7.3808    3.5410   -0.2463 C   0  0  0  0  0  0  0  0  0  0  0  0
    7.0766    3.9526    1.0560 C   0  0  0  0  0  0  0  0  0  0  0  0
    7.5378    5.1546    1.5837 C   0  0  0  0  0  0  0  0  0  0  0  0
    7.2274    5.4778    2.5724 H   0  0  0  0  0  0  0  0  0  0  0  0
    8.3737    5.9456    0.7998 C   0  0  0  0  0  0  0  0  0  0  0  0
    8.8243    7.1084    1.2899 F   0  0  0  0  0  0  0  0  0  0  0  0
    8.7488    5.5185   -0.4792 C   0  0  0  0  0  0  0  0  0  0  0  0
    9.4035    6.1400   -1.0853 H   0  0  0  0  0  0  0  0  0  0  0  0
    8.2477    4.3222   -1.0039 C   0  0  0  0  0  0  0  0  0  0  0  0
    8.7168    3.9240   -2.3715 C   0  0  0  0  0  0  0  0  0  0  0  0
    8.4395    4.6755   -3.1156 H   0  0  0  0  0  0  0  0  0  0  0  0
    9.8103    3.8263   -2.3594 H   0  0  0  0  0  0  0  0  0  0  0  0
    8.3163    2.9546   -2.6867 H   0  0  0  0  0  0  0  0  0  0  0  0
    6.1945    3.0437    1.8181 C   0  0  0  0  0  0  0  0  0  0  0  0
    5.5759    3.4225    2.8051 O   0  0  0  0  0  0  0  0  0  0  0  0
    6.1164    1.7739    1.3021 N   0  0  0  0  0  0  0  0  0  0  0  0
    7.0596    1.4125    1.4111 H   0  0  0  0  0  0  0  0  0  0  0  0
  1  2  1  0  0  0  0
  2  3  1  0  0  0  0
  2 29  2  0  0  0  0
  3  4  1  0  0  0  0
  3  5  2  0  0  0  0
  5  6  1  0  0  0  0
  5 25  1  0  0  0  0
  6  7  1  0  0  0  0
  6 22  1  0  0  0  0
  7  8  1  0  0  0  0
  7  9  1  0  0  0  0
  7 10  1  0  0  0  0
 10 11  1  0  0  0  0
 10 12  1  0  0  0  0
 10 13  1  0  0  0  0
 13 14  1  0  0  0  0
 13 15  1  0  0  0  0
 13 19  1  0  0  0  0
 15 16  1  0  0  0  0
 15 17  1  0  0  0  0
 15 18  1  0  0  0  0
 19 20  1  0  0  0  0
 19 21  1  0  0  0  0
 19 22  1  0  0  0  0
 22 23  1  0  0  0  0
 22 24  1  0  0  0  0
 25 26  1  0  0  0  0
 25 27  2  0  0  0  0
 27 28  1  0  0  0  0
 27 29  1  0  0  0  0
 29 30  1  0  0  0  0
 30 31  2  0  0  0  0
 30 47  1  0  0  0  0
 31 32  1  0  0  0  0
 32 33  1  0  0  0  0
 32 40  2  0  0  0  0
 33 34  2  0  0  0  0
 33 45  1  0  0  0  0
 34 35  1  0  0  0  0
 34 36  1  0  0  0  0
 36 37  1  0  0  0  0
 36 38  2  0  0  0  0
 38 39  1  0  0  0  0
 38 40  1  0  0  0  0
 40 41  1  0  0  0  0
 41 42  1  0  0  0  0
 41 43  1  0  0  0  0
 41 44  1  0  0  0  0
 45 46  2  0  0  0  0
 45 47  1  0  0  0  0
 47 48  1  0  0  0  0
M  CHG  1  13   1
M  END
$$$$
