lig_5o
 OpenBabel01052519193D

 47 49  0  0  0  0  0  0  0  0999 V2000
    2.7553   -5.1657   -4.8319 H   0  0  0  0  0  0  0  0  0  0  0  0
    2.8239   -4.2018   -4.7202 O   0  0  0  0  0  0  0  0  0  0  0  0
    1.9014   -3.8426   -3.6993 C   0  0  0  0  0  0  0  0  0  0  0  0
    0.8873   -4.0927   -4.0287 H   0  0  0  0  0  0  0  0  0  0  0  0
    2.1155   -4.4280   -2.7975 H   0  0  0  0  0  0  0  0  0  0  0  0
    2.0124   -2.3532   -3.4046 C   0  0  0  0  0  0  0  0  0  0  0  0
    3.0412   -2.1325   -3.1029 H   0  0  0  0  0  0  0  0  0  0  0  0
    1.7985   -1.7940   -4.3190 H   0  0  0  0  0  0  0  0  0  0  0  0
    1.0965   -2.0183   -2.3653 O   0  0  0  0  0  0  0  0  0  0  0  0
    1.0156   -0.6296   -2.0063 C   0  0  0  0  0  0  0  0  0  0  0  0
    2.3634   -0.1111   -1.4720 C   0  0  0  0  0  0  0  0  0  0  0  0
    3.2374    0.5002   -2.3699 C   0  0  0  0  0  0  0  0  0  0  0  0
    2.9638    0.5969   -3.4171 H   0  0  0  0  0  0  0  0  0  0  0  0
    4.4441    1.0342   -1.9161 C   0  0  0  0  0  0  0  0  0  0  0  0
    5.0952    1.5521   -2.6168 H   0  0  0  0  0  0  0  0  0  0  0  0
    4.7767    0.9653   -0.5572 C   0  0  0  0  0  0  0  0  0  0  0  0
    5.9252    1.7653   -0.0581 C   0  0  0  0  0  0  0  0  0  0  0  0
    6.6583    2.4902   -0.8493 N   0  0  0  0  0  0  0  0  0  0  0  0
    7.3808    3.5410   -0.2463 C   0  0  0  0  0  0  0  0  0  0  0  0
    7.0766    3.9526    1.0560 C   0  0  0  0  0  0  0  0  0  0  0  0
    7.5378    5.1546    1.5837 C   0  0  0  0  0  0  0  0  0  0  0  0
    7.2274    5.4778    2.5724 H   0  0  0  0  0  0  0  0  0  0  0  0
    8.3737    5.9456    0.7998 C   0  0  0  0  0  0  0  0  0  0  0  0
    8.8130    7.1153    1.2816 F   0  0  0  0  0  0  0  0  0  0  0  0
    8.7488    5.5185   -0.4792 C   0  0  0  0  0  0  0  0  0  0  0  0
    9.4035    6.1400   -1.0853 H   0  0  0  0  0  0  0  0  0  0  0  0
    8.2477    4.3222   -1.0039 C   0  0  0  0  0  0  0  0  0  0  0  0
    8.6464    3.9545   -2.4036 C   0  0  0  0  0  0  0  0  0  0  0  0
    8.2579    4.6872   -3.1175 H   0  0  0  0  0  0  0  0  0  0  0  0
    9.7395    3.9310   -2.4760 H   0  0  0  0  0  0  0  0  0  0  0  0
    8.2856    2.9640   -2.6933 H   0  0  0  0  0  0  0  0  0  0  0  0
    6.1945    3.0437    1.8181 C   0  0  0  0  0  0  0  0  0  0  0  0
    5.5759    3.4225    2.8051 O   0  0  0  0  0  0  0  0  0  0  0  0
    6.1164    1.7739    1.3021 N   0  0  0  0  0  0  0  0  0  0  0  0
    7.0596    1.4125    1.4111 H   0  0  0  0  0  0  0  0  0  0  0  0
    3.9112    0.3138    0.3337 C   0  0  0  0  0  0  0  0  0  0  0  0
    4.1309    0.2639    1.3975 H   0  0  0  0  0  0  0  0  0  0  0  0
    2.7057   -0.2185   -0.1250 C   0  0  0  0  0  0  0  0  0  0  0  0
    2.0171   -0.6813    0.5773 H   0  0  0  0  0  0  0  0  0  0  0  0
    0.4561    0.2192   -3.1734 C   0  0  0  0  0  0  0  0  0  0  0  0
   -0.4989   -0.1888   -3.5249 H   0  0  0  0  0  0  0  0  0  0  0  0
    0.2945    1.2595   -2.8651 H   0  0  0  0  0  0  0  0  0  0  0  0
    1.1084    0.2359   -4.0498 H   0  0  0  0  0  0  0  0  0  0  0  0
   -0.0846   -0.5804   -0.9167 C   0  0  0  0  0  0  0  0  0  0  0  0
   -1.0555   -0.8797   -1.3314 H   0  0  0  0  0  0  0  0  0  0  0  0
    0.1079   -1.2914   -0.1061 H   0  0  0  0  0  0  0  0  0  0  0  0
   -0.1929    0.4232   -0.4884 H   0  0  0  0  0  0  0  0  0  0  0  0
  1  2  1  0  0  0  0
  2  3  1  0  0  0  0
  3  4  1  0  0  0  0
  3  5  1  0  0  0  0
  3  6  1  0  0  0  0
  6  7  1  0  0  0  0
  6  8  1  0  0  0  0
  6  9  1  0  0  0  0
  9 10  1  0  0  0  0
 10 11  1  0  0  0  0
 10 40  1  0  0  0  0
 10 44  1  0  0  0  0
 11 12  1  0  0  0  0
 11 38  2  0  0  0  0
 12 13  1  0  0  0  0
 12 14  2  0  0  0  0
 14 15  1  0  0  0  0
 14 16  1  0  0  0  0
 16 17  1  0  0  0  0
 16 36  2  0  0  0  0
 17 18  2  0  0  0  0
 17 34  1  0  0  0  0
 18 19  1  0  0  0  0
 19 20  1  0  0  0  0
 19 27  2  0  0  0  0
 20 21  2  0  0  0  0
 20 32  1  0  0  0  0
 21 22  1  0  0  0  0
 21 23  1  0  0  0  0
 23 24  1  0  0  0  0
 23 25  2  0  0  0  0
 25 26  1  0  0  0  0
 25 27  1  0  0  0  0
 27 28  1  0  0  0  0
 28 29  1  0  0  0  0
 28 30  1  0  0  0  0
 28 31  1  0  0  0  0
 32 33  2  0  0  0  0
 32 34  1  0  0  0  0
 34 35  1  0  0  0  0
 36 37  1  0  0  0  0
 36 38  1  0  0  0  0
 38 39  1  0  0  0  0
 40 41  1  0  0  0  0
 40 42  1  0  0  0  0
 40 43  1  0  0  0  0
 44 45  1  0  0  0  0
 44 46  1  0  0  0  0
 44 47  1  0  0  0  0
M  END
$$$$
