lig_5n
 OpenBabel01052519193D

 44 46  0  0  0  0  0  0  0  0999 V2000
   -1.3875   -0.1562   -7.0215 H   0  0  0  0  0  0  0  0  0  0  0  0
   -1.4974   -0.4705   -6.1074 O   0  0  0  0  0  0  0  0  0  0  0  0
   -0.3125   -0.1135   -5.4072 C   0  0  0  0  0  0  0  0  0  0  0  0
    0.5479   -0.5797   -5.8997 H   0  0  0  0  0  0  0  0  0  0  0  0
   -0.1779    0.9723   -5.4606 H   0  0  0  0  0  0  0  0  0  0  0  0
   -0.4019   -0.5684   -3.9532 C   0  0  0  0  0  0  0  0  0  0  0  0
   -1.2601   -0.0793   -3.4824 H   0  0  0  0  0  0  0  0  0  0  0  0
   -0.5680   -1.6492   -3.9293 H   0  0  0  0  0  0  0  0  0  0  0  0
    0.8087   -0.2165   -3.2963 O   0  0  0  0  0  0  0  0  0  0  0  0
    0.9874   -0.6368   -1.9292 C   0  0  0  0  0  0  0  0  0  0  0  0
    2.3634   -0.1111   -1.4720 C   0  0  0  0  0  0  0  0  0  0  0  0
    3.2374    0.5002   -2.3699 C   0  0  0  0  0  0  0  0  0  0  0  0
    2.9638    0.5969   -3.4171 H   0  0  0  0  0  0  0  0  0  0  0  0
    4.4441    1.0342   -1.9161 C   0  0  0  0  0  0  0  0  0  0  0  0
    5.0952    1.5521   -2.6168 H   0  0  0  0  0  0  0  0  0  0  0  0
    4.7767    0.9653   -0.5572 C   0  0  0  0  0  0  0  0  0  0  0  0
    5.9252    1.7653   -0.0581 C   0  0  0  0  0  0  0  0  0  0  0  0
    6.6583    2.4902   -0.8493 N   0  0  0  0  0  0  0  0  0  0  0  0
    7.3808    3.5410   -0.2463 C   0  0  0  0  0  0  0  0  0  0  0  0
    8.2477    4.3222   -1.0039 C   0  0  0  0  0  0  0  0  0  0  0  0
    8.4949    4.0264   -2.0201 H   0  0  0  0  0  0  0  0  0  0  0  0
    8.7488    5.5185   -0.4792 C   0  0  0  0  0  0  0  0  0  0  0  0
    9.4035    6.1400   -1.0853 H   0  0  0  0  0  0  0  0  0  0  0  0
    8.3737    5.9456    0.7998 C   0  0  0  0  0  0  0  0  0  0  0  0
    8.7873    7.1272    1.2709 F   0  0  0  0  0  0  0  0  0  0  0  0
    7.5378    5.1546    1.5837 C   0  0  0  0  0  0  0  0  0  0  0  0
    7.2274    5.4778    2.5724 H   0  0  0  0  0  0  0  0  0  0  0  0
    7.0766    3.9526    1.0560 C   0  0  0  0  0  0  0  0  0  0  0  0
    6.1945    3.0437    1.8181 C   0  0  0  0  0  0  0  0  0  0  0  0
    5.5759    3.4225    2.8051 O   0  0  0  0  0  0  0  0  0  0  0  0
    6.1164    1.7739    1.3021 N   0  0  0  0  0  0  0  0  0  0  0  0
    7.0596    1.4125    1.4111 H   0  0  0  0  0  0  0  0  0  0  0  0
    3.9112    0.3138    0.3337 C   0  0  0  0  0  0  0  0  0  0  0  0
    4.1309    0.2639    1.3975 H   0  0  0  0  0  0  0  0  0  0  0  0
    2.7057   -0.2185   -0.1250 C   0  0  0  0  0  0  0  0  0  0  0  0
    2.0171   -0.6813    0.5773 H   0  0  0  0  0  0  0  0  0  0  0  0
   -0.1222   -0.0333   -1.0448 C   0  0  0  0  0  0  0  0  0  0  0  0
   -1.1146   -0.3862   -1.3428 H   0  0  0  0  0  0  0  0  0  0  0  0
   -0.0063   -0.2910    0.0130 H   0  0  0  0  0  0  0  0  0  0  0  0
   -0.1362    1.0602   -1.1292 H   0  0  0  0  0  0  0  0  0  0  0  0
    0.9935   -2.1686   -1.8343 C   0  0  0  0  0  0  0  0  0  0  0  0
    0.0071   -2.5884   -2.0564 H   0  0  0  0  0  0  0  0  0  0  0  0
    1.6942   -2.5982   -2.5596 H   0  0  0  0  0  0  0  0  0  0  0  0
    1.2742   -2.5217   -0.8363 H   0  0  0  0  0  0  0  0  0  0  0  0
  1  2  1  0  0  0  0
  2  3  1  0  0  0  0
  3  4  1  0  0  0  0
  3  5  1  0  0  0  0
  3  6  1  0  0  0  0
  6  7  1  0  0  0  0
  6  8  1  0  0  0  0
  6  9  1  0  0  0  0
  9 10  1  0  0  0  0
 10 11  1  0  0  0  0
 10 37  1  0  0  0  0
 10 41  1  0  0  0  0
 11 12  1  0  0  0  0
 11 35  2  0  0  0  0
 12 13  1  0  0  0  0
 12 14  2  0  0  0  0
 14 15  1  0  0  0  0
 14 16  1  0  0  0  0
 16 17  1  0  0  0  0
 16 33  2  0  0  0  0
 17 18  2  0  0  0  0
 17 31  1  0  0  0  0
 18 19  1  0  0  0  0
 19 20  1  0  0  0  0
 19 28  2  0  0  0  0
 20 21  1  0  0  0  0
 20 22  2  0  0  0  0
 22 23  1  0  0  0  0
 22 24  1  0  0  0  0
 24 25  1  0  0  0  0
 24 26  2  0  0  0  0
 26 27  1  0  0  0  0
 26 28  1  0  0  0  0
 28 29  1  0  0  0  0
 29 30  2  0  0  0  0
 29 31  1  0  0  0  0
 31 32  1  0  0  0  0
 33 34  1  0  0  0  0
 33 35  1  0  0  0  0
 35 36  1  0  0  0  0
 37 38  1  0  0  0  0
 37 39  1  0  0  0  0
 37 40  1  0  0  0  0
 41 42  1  0  0  0  0
 41 43  1  0  0  0  0
 41 44  1  0  0  0  0
M  END
$$$$
