lig_8c
 OpenBabel01052519193D

 43 46  0  0  0  0  0  0  0  0999 V2000
    9.4035    6.1400   -1.0853 H   0  0  0  0  0  0  0  0  0  0  0  0
    8.7488    5.5185   -0.4792 C   0  0  0  0  0  0  0  0  0  0  0  0
    8.3737    5.9456    0.7998 C   0  0  0  0  0  0  0  0  0  0  0  0
    8.8140    7.1146    1.2801 F   0  0  0  0  0  0  0  0  0  0  0  0
    7.5378    5.1546    1.5837 C   0  0  0  0  0  0  0  0  0  0  0  0
    7.2274    5.4778    2.5724 H   0  0  0  0  0  0  0  0  0  0  0  0
    7.0766    3.9526    1.0560 C   0  0  0  0  0  0  0  0  0  0  0  0
    7.3808    3.5410   -0.2463 C   0  0  0  0  0  0  0  0  0  0  0  0
    8.2477    4.3222   -1.0039 C   0  0  0  0  0  0  0  0  0  0  0  0
    8.6281    3.9610   -2.2388 F   0  0  0  0  0  0  0  0  0  0  0  0
    6.6583    2.4902   -0.8493 N   0  0  0  0  0  0  0  0  0  0  0  0
    5.9252    1.7653   -0.0581 C   0  0  0  0  0  0  0  0  0  0  0  0
    4.7767    0.9653   -0.5572 C   0  0  0  0  0  0  0  0  0  0  0  0
    4.4441    1.0342   -1.9161 C   0  0  0  0  0  0  0  0  0  0  0  0
    5.0952    1.5521   -2.6168 H   0  0  0  0  0  0  0  0  0  0  0  0
    3.2374    0.5002   -2.3699 C   0  0  0  0  0  0  0  0  0  0  0  0
    2.9638    0.5969   -3.4171 H   0  0  0  0  0  0  0  0  0  0  0  0
    2.3634   -0.1111   -1.4720 C   0  0  0  0  0  0  0  0  0  0  0  0
    1.0613   -0.8019   -1.8506 C   0  0  0  0  0  0  0  0  0  0  0  0
    0.4519   -0.7503   -0.9353 H   0  0  0  0  0  0  0  0  0  0  0  0
    1.3320   -2.3016   -2.0949 C   0  0  0  0  0  0  0  0  0  0  0  0
    2.2001   -2.6537   -1.5244 H   0  0  0  0  0  0  0  0  0  0  0  0
    0.4724   -2.8735   -1.7127 H   0  0  0  0  0  0  0  0  0  0  0  0
    1.5309   -2.6627   -3.5531 C   0  0  0  0  0  0  0  0  0  0  0  0
    2.4339   -2.2208   -3.9879 H   0  0  0  0  0  0  0  0  0  0  0  0
    1.5605   -3.7472   -3.6939 H   0  0  0  0  0  0  0  0  0  0  0  0
    0.3617   -2.1564   -4.3206 N   0  3  0  0  0  0  0  0  0  0  0  0
   -0.5095   -2.5513   -3.9363 H   0  0  0  0  0  0  0  0  0  0  0  0
    0.4124   -2.5056   -5.2878 H   0  0  0  0  0  0  0  0  0  0  0  0
    0.2951   -0.6703   -4.3348 C   0  0  0  0  0  0  0  0  0  0  0  0
   -0.5847   -0.4040   -4.9303 H   0  0  0  0  0  0  0  0  0  0  0  0
    1.1903   -0.3074   -4.8469 H   0  0  0  0  0  0  0  0  0  0  0  0
    0.1733   -0.1337   -2.9167 C   0  0  0  0  0  0  0  0  0  0  0  0
   -0.8705   -0.2965   -2.6104 H   0  0  0  0  0  0  0  0  0  0  0  0
    0.3098    0.9541   -2.9222 H   0  0  0  0  0  0  0  0  0  0  0  0
    2.7057   -0.2185   -0.1250 C   0  0  0  0  0  0  0  0  0  0  0  0
    2.0171   -0.6813    0.5773 H   0  0  0  0  0  0  0  0  0  0  0  0
    3.9112    0.3138    0.3337 C   0  0  0  0  0  0  0  0  0  0  0  0
    4.1309    0.2639    1.3975 H   0  0  0  0  0  0  0  0  0  0  0  0
    6.1164    1.7739    1.3021 N   0  0  0  0  0  0  0  0  0  0  0  0
    7.0596    1.4125    1.4111 H   0  0  0  0  0  0  0  0  0  0  0  0
    6.1945    3.0437    1.8181 C   0  0  0  0  0  0  0  0  0  0  0  0
    5.5759    3.4225    2.8051 O   0  0  0  0  0  0  0  0  0  0  0  0
  1  2  1  0  0  0  0
  2  3  1  0  0  0  0
  2  9  2  0  0  0  0
  3  4  1  0  0  0  0
  3  5  2  0  0  0  0
  5  6  1  0  0  0  0
  5  7  1  0  0  0  0
  7  8  2  0  0  0  0
  7 42  1  0  0  0  0
  8  9  1  0  0  0  0
  8 11  1  0  0  0  0
  9 10  1  0  0  0  0
 11 12  2  0  0  0  0
 12 13  1  0  0  0  0
 12 40  1  0  0  0  0
 13 14  1  0  0  0  0
 13 38  2  0  0  0  0
 14 15  1  0  0  0  0
 14 16  2  0  0  0  0
 16 17  1  0  0  0  0
 16 18  1  0  0  0  0
 18 19  1  0  0  0  0
 18 36  2  0  0  0  0
 19 20  1  0  0  0  0
 19 21  1  0  0  0  0
 19 33  1  0  0  0  0
 21 22  1  0  0  0  0
 21 23  1  0  0  0  0
 21 24  1  0  0  0  0
 24 25  1  0  0  0  0
 24 26  1  0  0  0  0
 24 27  1  0  0  0  0
 27 28  1  0  0  0  0
 27 29  1  0  0  0  0
 27 30  1  0  0  0  0
 30 31  1  0  0  0  0
 30 32  1  0  0  0  0
 30 33  1  0  0  0  0
 33 34  1  0  0  0  0
 33 35  1  0  0  0  0
 36 37  1  0  0  0  0
 36 38  1  0  0  0  0
 38 39  1  0  0  0  0
 40 41  1  0  0  0  0
 40 42  1  0  0  0  0
 42 43  2  0  0  0  0
M  CHG  1  27   1
M  END
$$$$
