lig_8a
 OpenBabel01052519193D

 45 48  0  0  0  0  0  0  0  0999 V2000
    9.4035    6.1400   -1.0853 H   0  0  0  0  0  0  0  0  0  0  0  0
    8.7488    5.5185   -0.4792 C   0  0  0  0  0  0  0  0  0  0  0  0
    8.2477    4.3222   -1.0039 C   0  0  0  0  0  0  0  0  0  0  0  0
    8.4949    4.0264   -2.0201 H   0  0  0  0  0  0  0  0  0  0  0  0
    7.3808    3.5410   -0.2463 C   0  0  0  0  0  0  0  0  0  0  0  0
    7.0766    3.9526    1.0560 C   0  0  0  0  0  0  0  0  0  0  0  0
    7.5378    5.1546    1.5837 C   0  0  0  0  0  0  0  0  0  0  0  0
    7.2274    5.4778    2.5724 H   0  0  0  0  0  0  0  0  0  0  0  0
    8.3737    5.9456    0.7998 C   0  0  0  0  0  0  0  0  0  0  0  0
    8.8095    7.1174    1.2773 F   0  0  0  0  0  0  0  0  0  0  0  0
    6.1945    3.0437    1.8181 C   0  0  0  0  0  0  0  0  0  0  0  0
    5.5759    3.4225    2.8051 O   0  0  0  0  0  0  0  0  0  0  0  0
    6.1164    1.7739    1.3021 N   0  0  0  0  0  0  0  0  0  0  0  0
    7.0596    1.4125    1.4111 H   0  0  0  0  0  0  0  0  0  0  0  0
    5.9252    1.7653   -0.0581 C   0  0  0  0  0  0  0  0  0  0  0  0
    4.7767    0.9653   -0.5572 C   0  0  0  0  0  0  0  0  0  0  0  0
    4.4441    1.0342   -1.9161 C   0  0  0  0  0  0  0  0  0  0  0  0
    5.0952    1.5521   -2.6168 H   0  0  0  0  0  0  0  0  0  0  0  0
    3.2374    0.5002   -2.3699 C   0  0  0  0  0  0  0  0  0  0  0  0
    2.9638    0.5969   -3.4171 H   0  0  0  0  0  0  0  0  0  0  0  0
    2.3634   -0.1111   -1.4720 C   0  0  0  0  0  0  0  0  0  0  0  0
    1.2016   -0.6508   -2.0011 N   0  0  0  0  0  0  0  0  0  0  0  0
    0.5192   -1.7650   -1.3349 C   0  0  0  0  0  0  0  0  0  0  0  0
   -0.2615   -1.3825   -0.6661 H   0  0  0  0  0  0  0  0  0  0  0  0
    1.2103   -2.3740   -0.7416 H   0  0  0  0  0  0  0  0  0  0  0  0
   -0.0943   -2.6818   -2.4128 C   0  0  0  0  0  0  0  0  0  0  0  0
   -0.7038   -3.4668   -1.9548 H   0  0  0  0  0  0  0  0  0  0  0  0
    0.6912   -3.1310   -3.0313 H   0  0  0  0  0  0  0  0  0  0  0  0
   -1.0063   -1.8948   -3.3590 N   0  3  0  0  0  0  0  0  0  0  0  0
   -1.7941   -1.5475   -2.7981 H   0  0  0  0  0  0  0  0  0  0  0  0
   -1.5558   -2.7800   -4.4379 C   0  0  0  0  0  0  0  0  0  0  0  0
   -2.2529   -2.1907   -5.0383 H   0  0  0  0  0  0  0  0  0  0  0  0
   -0.7241   -3.1428   -5.0487 H   0  0  0  0  0  0  0  0  0  0  0  0
   -2.0789   -3.6121   -3.9603 H   0  0  0  0  0  0  0  0  0  0  0  0
   -0.2980   -0.6698   -3.9488 C   0  0  0  0  0  0  0  0  0  0  0  0
    0.4684   -1.0446   -4.6363 H   0  0  0  0  0  0  0  0  0  0  0  0
   -1.0510   -0.1012   -4.5040 H   0  0  0  0  0  0  0  0  0  0  0  0
    0.3383    0.1955   -2.8411 C   0  0  0  0  0  0  0  0  0  0  0  0
   -0.4490    0.6396   -2.2181 H   0  0  0  0  0  0  0  0  0  0  0  0
    0.8753    1.0259   -3.3120 H   0  0  0  0  0  0  0  0  0  0  0  0
    2.7057   -0.2185   -0.1250 C   0  0  0  0  0  0  0  0  0  0  0  0
    2.0171   -0.6813    0.5773 H   0  0  0  0  0  0  0  0  0  0  0  0
    3.9112    0.3138    0.3337 C   0  0  0  0  0  0  0  0  0  0  0  0
    4.1309    0.2639    1.3975 H   0  0  0  0  0  0  0  0  0  0  0  0
    6.6583    2.4902   -0.8493 N   0  0  0  0  0  0  0  0  0  0  0  0
  1  2  1  0  0  0  0
  2  3  1  0  0  0  0
  2  9  2  0  0  0  0
  3  4  1  0  0  0  0
  3  5  2  0  0  0  0
  5  6  1  0  0  0  0
  5 45  1  0  0  0  0
  6  7  2  0  0  0  0
  6 11  1  0  0  0  0
  7  8  1  0  0  0  0
  7  9  1  0  0  0  0
  9 10  1  0  0  0  0
 11 12  2  0  0  0  0
 11 13  1  0  0  0  0
 13 14  1  0  0  0  0
 13 15  1  0  0  0  0
 15 16  1  0  0  0  0
 15 45  2  0  0  0  0
 16 17  1  0  0  0  0
 16 43  2  0  0  0  0
 17 18  1  0  0  0  0
 17 19  2  0  0  0  0
 19 20  1  0  0  0  0
 19 21  1  0  0  0  0
 21 22  1  0  0  0  0
 21 41  2  0  0  0  0
 22 23  1  0  0  0  0
 22 38  1  0  0  0  0
 23 24  1  0  0  0  0
 23 25  1  0  0  0  0
 23 26  1  0  0  0  0
 26 27  1  0  0  0  0
 26 28  1  0  0  0  0
 26 29  1  0  0  0  0
 29 30  1  0  0  0  0
 29 31  1  0  0  0  0
 29 35  1  0  0  0  0
 31 32  1  0  0  0  0
 31 33  1  0  0  0  0
 31 34  1  0  0  0  0
 35 36  1  0  0  0  0
 35 37  1  0  0  0  0
 35 38  1  0  0  0  0
 38 39  1  0  0  0  0
 38 40  1  0  0  0  0
 41 42  1  0  0  0  0
 41 43  1  0  0  0  0
 43 44  1  0  0  0  0
M  CHG  1  29   1
M  END
$$$$
