lig_8d
 OpenBabel01052519193D

 46 49  0  0  0  0  0  0  0  0999 V2000
    5.0952    1.5521   -2.6168 H   0  0  0  0  0  0  0  0  0  0  0  0
    4.4441    1.0342   -1.9161 C   0  0  0  0  0  0  0  0  0  0  0  0
    3.2374    0.5002   -2.3699 C   0  0  0  0  0  0  0  0  0  0  0  0
    2.9638    0.5969   -3.4171 H   0  0  0  0  0  0  0  0  0  0  0  0
    2.3634   -0.1111   -1.4720 C   0  0  0  0  0  0  0  0  0  0  0  0
    0.9457   -0.5509   -1.8240 C   0  0  0  0  0  0  0  0  0  0  0  0
    0.8154   -1.5285   -1.3381 H   0  0  0  0  0  0  0  0  0  0  0  0
    0.6071   -0.7660   -3.3125 C   0  0  0  0  0  0  0  0  0  0  0  0
    1.4055   -1.3227   -3.8160 H   0  0  0  0  0  0  0  0  0  0  0  0
   -0.2824   -1.4107   -3.3539 H   0  0  0  0  0  0  0  0  0  0  0  0
    0.2820    0.4987   -4.1036 C   0  0  0  0  0  0  0  0  0  0  0  0
    1.1594    1.1134   -4.3148 H   0  0  0  0  0  0  0  0  0  0  0  0
   -0.1962    0.2476   -5.0561 H   0  0  0  0  0  0  0  0  0  0  0  0
   -0.6775    1.3579   -3.3595 N   0  3  0  0  0  0  0  0  0  0  0  0
   -1.5994    0.9021   -3.3096 H   0  0  0  0  0  0  0  0  0  0  0  0
   -0.8306    2.2282   -3.8889 H   0  0  0  0  0  0  0  0  0  0  0  0
   -0.2182    1.7150   -1.9850 C   0  0  0  0  0  0  0  0  0  0  0  0
   -0.9871    2.3655   -1.5571 H   0  0  0  0  0  0  0  0  0  0  0  0
    0.7152    2.2786   -2.0801 H   0  0  0  0  0  0  0  0  0  0  0  0
   -0.0727    0.4282   -1.1874 C   0  0  0  0  0  0  0  0  0  0  0  0
   -1.0509   -0.0679   -1.1347 H   0  0  0  0  0  0  0  0  0  0  0  0
    0.1944    0.6801   -0.1546 H   0  0  0  0  0  0  0  0  0  0  0  0
    2.7057   -0.2185   -0.1250 C   0  0  0  0  0  0  0  0  0  0  0  0
    2.0171   -0.6813    0.5773 H   0  0  0  0  0  0  0  0  0  0  0  0
    3.9112    0.3138    0.3337 C   0  0  0  0  0  0  0  0  0  0  0  0
    4.1309    0.2639    1.3975 H   0  0  0  0  0  0  0  0  0  0  0  0
    4.7767    0.9653   -0.5572 C   0  0  0  0  0  0  0  0  0  0  0  0
    5.9252    1.7653   -0.0581 C   0  0  0  0  0  0  0  0  0  0  0  0
    6.6583    2.4902   -0.8493 N   0  0  0  0  0  0  0  0  0  0  0  0
    7.3808    3.5410   -0.2463 C   0  0  0  0  0  0  0  0  0  0  0  0
    7.0766    3.9526    1.0560 C   0  0  0  0  0  0  0  0  0  0  0  0
    7.5378    5.1546    1.5837 C   0  0  0  0  0  0  0  0  0  0  0  0
    7.2274    5.4778    2.5724 H   0  0  0  0  0  0  0  0  0  0  0  0
    8.3737    5.9456    0.7998 C   0  0  0  0  0  0  0  0  0  0  0  0
    8.8210    7.1074    1.2911 F   0  0  0  0  0  0  0  0  0  0  0  0
    8.7488    5.5185   -0.4792 C   0  0  0  0  0  0  0  0  0  0  0  0
    9.4035    6.1400   -1.0853 H   0  0  0  0  0  0  0  0  0  0  0  0
    8.2477    4.3222   -1.0039 C   0  0  0  0  0  0  0  0  0  0  0  0
    8.6901    3.9324   -2.3839 C   0  0  0  0  0  0  0  0  0  0  0  0
    8.3397    4.6594   -3.1214 H   0  0  0  0  0  0  0  0  0  0  0  0
    9.7853    3.8940   -2.4130 H   0  0  0  0  0  0  0  0  0  0  0  0
    8.3292    2.9406   -2.6711 H   0  0  0  0  0  0  0  0  0  0  0  0
    6.1945    3.0437    1.8181 C   0  0  0  0  0  0  0  0  0  0  0  0
    5.5759    3.4225    2.8051 O   0  0  0  0  0  0  0  0  0  0  0  0
    6.1164    1.7739    1.3021 N   0  0  0  0  0  0  0  0  0  0  0  0
    7.0596    1.4125    1.4111 H   0  0  0  0  0  0  0  0  0  0  0  0
  1  2  1  0  0  0  0
  2  3  1  0  0  0  0
  2 27  2  0  0  0  0
  3  4  1  0  0  0  0
  3  5  2  0  0  0  0
  5  6  1  0  0  0  0
  5 23  1  0  0  0  0
  6  7  1  0  0  0  0
  6  8  1  0  0  0  0
  6 20  1  0  0  0  0
  8  9  1  0  0  0  0
  8 10  1  0  0  0  0
  8 11  1  0  0  0  0
 11 12  1  0  0  0  0
 11 13  1  0  0  0  0
 11 14  1  0  0  0  0
 14 15  1  0  0  0  0
 14 16  1  0  0  0  0
 14 17  1  0  0  0  0
 17 18  1  0  0  0  0
 17 19  1  0  0  0  0
 17 20  1  0  0  0  0
 20 21  1  0  0  0  0
 20 22  1  0  0  0  0
 23 24  1  0  0  0  0
 23 25  2  0  0  0  0
 25 26  1  0  0  0  0
 25 27  1  0  0  0  0
 27 28  1  0  0  0  0
 28 29  2  0  0  0  0
 28 45  1  0  0  0  0
 29 30  1  0  0  0  0
 30 31  1  0  0  0  0
 30 38  2  0  0  0  0
 31 32  2  0  0  0  0
 31 43  1  0  0  0  0
 32 33  1  0  0  0  0
 32 34  1  0  0  0  0
 34 35  1  0  0  0  0
 34 36  2  0  0  0  0
 36 37  1  0  0  0  0
 36 38  1  0  0  0  0
 38 39  1  0  0  0  0
 39 40  1  0  0  0  0
 39 41  1  0  0  0  0
 39 42  1  0  0  0  0
 43 44  2  0  0  0  0
 43 45  1  0  0  0  0
 45 46  1  0  0  0  0
M  CHG  1  14   1
M  END
$$$$
