lig_CHEMBL1078774
 OpenBabel01042520483D

 52 55  0  0  1  0  0  0  0  0999 V2000
    5.3170   -9.2265   -1.2457 H   0  0  0  0  0  0  0  0  0  0  0  0
    5.1681   -8.7556   -2.0815 O   0  0  0  0  0  0  0  0  0  0  0  0
    4.6541   -7.5207   -1.8066 C   0  0  0  0  0  0  0  0  0  0  0  0
    4.1931   -7.2006   -0.5297 C   0  0  0  0  0  0  0  0  0  0  0  0
    4.2633   -7.9114    0.2878 H   0  0  0  0  0  0  0  0  0  0  0  0
    3.6747   -5.9338   -0.2749 C   0  0  0  0  0  0  0  0  0  0  0  0
    3.4028   -5.6666    0.7452 H   0  0  0  0  0  0  0  0  0  0  0  0
    3.5904   -4.9670   -1.2941 C   0  0  0  0  0  0  0  0  0  0  0  0
    2.8964   -3.6200   -1.1038 C   0  0  2  0  0  0  0  0  0  0  0  0
    2.6240   -3.3130   -2.1259 H   0  0  0  0  0  0  0  0  0  0  0  0
    3.7787   -2.6043   -0.5341 N   0  0  0  0  0  0  0  0  0  0  0  0
    3.5029   -1.6433   -0.7238 H   0  0  0  0  0  0  0  0  0  0  0  0
    4.0111   -2.8108    0.8323 C   0  0  0  0  0  0  0  0  0  0  0  0
    5.3235   -2.8323    1.3120 C   0  0  0  0  0  0  0  0  0  0  0  0
    6.1443   -2.5206    0.6707 H   0  0  0  0  0  0  0  0  0  0  0  0
    5.5850   -3.2367    2.6161 C   0  0  0  0  0  0  0  0  0  0  0  0
    6.6238   -3.2654    2.9246 H   0  0  0  0  0  0  0  0  0  0  0  0
    4.5309   -3.5693    3.4771 C   0  0  0  0  0  0  0  0  0  0  0  0
    4.8312   -4.0890    4.8644 C   0  0  0  0  0  0  0  0  0  0  0  0
    4.9526   -2.8827    5.8150 C   0  0  0  0  0  0  0  0  0  0  0  0
    4.0247   -2.2989    5.8443 H   0  0  0  0  0  0  0  0  0  0  0  0
    5.1731   -3.2067    6.8392 H   0  0  0  0  0  0  0  0  0  0  0  0
    5.7559   -2.2048    5.5027 H   0  0  0  0  0  0  0  0  0  0  0  0
    3.7237   -5.0293    5.3886 C   0  0  0  0  0  0  0  0  0  0  0  0
    3.5521   -5.8622    4.6955 H   0  0  0  0  0  0  0  0  0  0  0  0
    3.9933   -5.4588    6.3621 H   0  0  0  0  0  0  0  0  0  0  0  0
    2.7713   -4.5088    5.5348 H   0  0  0  0  0  0  0  0  0  0  0  0
    6.1517   -4.8932    4.9280 C   0  0  0  0  0  0  0  0  0  0  0  0
    6.1448   -5.7245    4.2133 H   0  0  0  0  0  0  0  0  0  0  0  0
    7.0298   -4.2730    4.7181 H   0  0  0  0  0  0  0  0  0  0  0  0
    6.3088   -5.3151    5.9279 H   0  0  0  0  0  0  0  0  0  0  0  0
    3.2004   -3.4554    3.0135 C   0  0  0  0  0  0  0  0  0  0  0  0
    2.3503   -3.6199    3.6688 H   0  0  0  0  0  0  0  0  0  0  0  0
    2.9300   -3.0953    1.6802 C   0  0  0  0  0  0  0  0  0  0  0  0
    1.5332   -3.1515    1.0791 C   0  0  1  0  0  0  0  0  0  0  0  0
    0.9580   -3.8480    1.7037 H   0  0  0  0  0  0  0  0  0  0  0  0
    0.8819   -1.8679    1.1058 O   0  0  0  0  0  0  0  0  0  0  0  0
   -0.5060   -1.8982    0.6842 C   0  0  0  0  0  0  0  0  0  0  0  0
   -0.7545   -0.9098    0.2855 H   0  0  0  0  0  0  0  0  0  0  0  0
   -1.1486   -2.0750    1.5545 H   0  0  0  0  0  0  0  0  0  0  0  0
   -0.7929   -2.9433   -0.4015 C   0  0  0  0  0  0  0  0  0  0  0  0
   -1.1061   -3.8862    0.0581 H   0  0  0  0  0  0  0  0  0  0  0  0
   -1.6169   -2.5966   -1.0349 H   0  0  0  0  0  0  0  0  0  0  0  0
    0.4461   -3.1402   -1.2413 C   0  0  0  0  0  0  0  0  0  0  0  0
    0.2029   -3.8345   -2.0581 H   0  0  0  0  0  0  0  0  0  0  0  0
    0.7315   -2.1991   -1.7206 H   0  0  0  0  0  0  0  0  0  0  0  0
    1.5493   -3.7348   -0.3585 C   0  0  1  0  0  0  0  0  0  0  0  0
    1.2833   -4.7806   -0.1489 H   0  0  0  0  0  0  0  0  0  0  0  0
    4.1076   -5.2902   -2.5569 C   0  0  0  0  0  0  0  0  0  0  0  0
    4.1714   -4.5381   -3.3388 H   0  0  0  0  0  0  0  0  0  0  0  0
    4.6253   -6.5605   -2.8131 C   0  0  0  0  0  0  0  0  0  0  0  0
    5.1467   -6.8143   -4.0223 F   0  0  0  0  0  0  0  0  0  0  0  0
  1  2  1  0  0  0  0
  2  3  1  0  0  0  0
  3  4  2  0  0  0  0
  3 51  1  0  0  0  0
  4  5  1  0  0  0  0
  4  6  1  0  0  0  0
  6  7  1  0  0  0  0
  6  8  2  0  0  0  0
  8 49  1  0  0  0  0
  9 11  1  0  0  0  0
  9 47  1  0  0  0  0
  9 10  1  6  0  0  0
  9  8  1  0  0  0  0
 11 12  1  0  0  0  0
 11 13  1  0  0  0  0
 13 14  2  0  0  0  0
 13 34  1  0  0  0  0
 14 15  1  0  0  0  0
 14 16  1  0  0  0  0
 16 17  1  0  0  0  0
 16 18  2  0  0  0  0
 18 19  1  0  0  0  0
 18 32  1  0  0  0  0
 19 20  1  0  0  0  0
 19 24  1  0  0  0  0
 19 28  1  0  0  0  0
 20 21  1  0  0  0  0
 20 22  1  0  0  0  0
 20 23  1  0  0  0  0
 24 25  1  0  0  0  0
 24 26  1  0  0  0  0
 24 27  1  0  0  0  0
 28 29  1  0  0  0  0
 28 30  1  0  0  0  0
 28 31  1  0  0  0  0
 32 33  1  0  0  0  0
 32 34  2  0  0  0  0
 34 35  1  0  0  0  0
 35 36  1  1  0  0  0
 35 37  1  0  0  0  0
 35 47  1  0  0  0  0
 37 38  1  0  0  0  0
 38 39  1  0  0  0  0
 38 40  1  0  0  0  0
 38 41  1  0  0  0  0
 41 42  1  0  0  0  0
 41 43  1  0  0  0  0
 41 44  1  0  0  0  0
 44 45  1  0  0  0  0
 44 46  1  0  0  0  0
 44 47  1  0  0  0  0
 47 48  1  1  0  0  0
 49 50  1  0  0  0  0
 49 51  2  0  0  0  0
 51 52  1  0  0  0  0
M  END
$$$$
