lig_CHEMBL1083517
 OpenBabel01042520483D

 52 55  0  0  1  0  0  0  0  0999 V2000
    5.2782   -9.2558   -1.3009 H   0  0  0  0  0  0  0  0  0  0  0  0
    5.1707   -8.7421   -2.1187 O   0  0  0  0  0  0  0  0  0  0  0  0
    4.6541   -7.5207   -1.8066 C   0  0  0  0  0  0  0  0  0  0  0  0
    4.1931   -7.2006   -0.5297 C   0  0  0  0  0  0  0  0  0  0  0  0
    4.2625   -7.9140    0.2860 H   0  0  0  0  0  0  0  0  0  0  0  0
    3.6747   -5.9338   -0.2749 C   0  0  0  0  0  0  0  0  0  0  0  0
    3.3971   -5.6708    0.7441 H   0  0  0  0  0  0  0  0  0  0  0  0
    3.5904   -4.9670   -1.2941 C   0  0  0  0  0  0  0  0  0  0  0  0
    2.8964   -3.6200   -1.1038 C   0  0  2  0  0  0  0  0  0  0  0  0
    2.6245   -3.3093   -2.1222 H   0  0  0  0  0  0  0  0  0  0  0  0
    3.7787   -2.6043   -0.5341 N   0  0  0  0  0  0  0  0  0  0  0  0
    3.5657   -1.6365   -0.7711 H   0  0  0  0  0  0  0  0  0  0  0  0
    4.0111   -2.8108    0.8323 C   0  0  0  0  0  0  0  0  0  0  0  0
    5.3235   -2.8323    1.3120 C   0  0  0  0  0  0  0  0  0  0  0  0
    6.1539   -2.5365    0.6743 H   0  0  0  0  0  0  0  0  0  0  0  0
    5.5850   -3.2367    2.6161 C   0  0  0  0  0  0  0  0  0  0  0  0
    6.6194   -3.2972    2.9523 H   0  0  0  0  0  0  0  0  0  0  0  0
    4.5309   -3.5693    3.4771 C   0  0  0  0  0  0  0  0  0  0  0  0
    4.8312   -4.0890    4.8644 C   0  0  0  0  0  0  0  0  0  0  0  0
    6.1603   -4.2554    5.1106 F   0  0  0  0  0  0  0  0  0  0  0  0
    4.2575   -5.3022    5.0973 F   0  0  0  0  0  0  0  0  0  0  0  0
    4.3696   -3.2625    5.8424 F   0  0  0  0  0  0  0  0  0  0  0  0
    3.2004   -3.4554    3.0135 C   0  0  0  0  0  0  0  0  0  0  0  0
    2.3808   -3.6640    3.6981 H   0  0  0  0  0  0  0  0  0  0  0  0
    2.9300   -3.0953    1.6802 C   0  0  0  0  0  0  0  0  0  0  0  0
    1.5332   -3.1515    1.0791 C   0  0  1  0  0  0  0  0  0  0  0  0
    0.9507   -3.8337    1.7138 H   0  0  0  0  0  0  0  0  0  0  0  0
    0.8819   -1.8679    1.1058 O   0  0  0  0  0  0  0  0  0  0  0  0
   -0.5060   -1.8982    0.6842 C   0  0  1  0  0  0  0  0  0  0  0  0
   -1.1282   -2.1099    1.5631 H   0  0  0  0  0  0  0  0  0  0  0  0
   -0.8634   -0.5010    0.1298 C   0  0  0  0  0  0  0  0  0  0  0  0
   -0.2097   -0.2283   -0.7064 H   0  0  0  0  0  0  0  0  0  0  0  0
   -1.9138   -0.4348   -0.1703 H   0  0  0  0  0  0  0  0  0  0  0  0
   -0.6254    0.5234    1.1993 N   0  3  0  0  0  0  0  0  0  0  0  0
   -1.1798    0.2935    2.0335 H   0  0  0  0  0  0  0  0  0  0  0  0
    0.3623    0.4258    1.4892 H   0  0  0  0  0  0  0  0  0  0  0  0
   -0.9065    1.9216    0.7879 C   0  0  0  0  0  0  0  0  0  0  0  0
   -0.2217    2.1892   -0.0202 H   0  0  0  0  0  0  0  0  0  0  0  0
   -1.9480    1.9813    0.4622 H   0  0  0  0  0  0  0  0  0  0  0  0
   -0.7441    2.5589    1.6591 H   0  0  0  0  0  0  0  0  0  0  0  0
   -0.7929   -2.9433   -0.4015 C   0  0  0  0  0  0  0  0  0  0  0  0
   -1.0923   -3.8972    0.0476 H   0  0  0  0  0  0  0  0  0  0  0  0
   -1.6169   -2.6162   -1.0465 H   0  0  0  0  0  0  0  0  0  0  0  0
    0.4461   -3.1402   -1.2413 C   0  0  0  0  0  0  0  0  0  0  0  0
    0.2052   -3.8327   -2.0598 H   0  0  0  0  0  0  0  0  0  0  0  0
    0.7361   -2.1978   -1.7169 H   0  0  0  0  0  0  0  0  0  0  0  0
    1.5493   -3.7348   -0.3585 C   0  0  1  0  0  0  0  0  0  0  0  0
    1.2819   -4.7820   -0.1532 H   0  0  0  0  0  0  0  0  0  0  0  0
    4.1076   -5.2902   -2.5569 C   0  0  0  0  0  0  0  0  0  0  0  0
    4.1673   -4.5394   -3.3413 H   0  0  0  0  0  0  0  0  0  0  0  0
    4.6253   -6.5605   -2.8131 C   0  0  0  0  0  0  0  0  0  0  0  0
    5.0476   -6.7844   -3.7889 H   0  0  0  0  0  0  0  0  0  0  0  0
  1  2  1  0  0  0  0
  2  3  1  0  0  0  0
  3  4  2  0  0  0  0
  3 51  1  0  0  0  0
  4  5  1  0  0  0  0
  4  6  1  0  0  0  0
  6  7  1  0  0  0  0
  6  8  2  0  0  0  0
  8 49  1  0  0  0  0
  9 11  1  0  0  0  0
  9 47  1  0  0  0  0
  9 10  1  6  0  0  0
  9  8  1  0  0  0  0
 11 12  1  0  0  0  0
 11 13  1  0  0  0  0
 13 14  2  0  0  0  0
 13 25  1  0  0  0  0
 14 15  1  0  0  0  0
 14 16  1  0  0  0  0
 16 17  1  0  0  0  0
 16 18  2  0  0  0  0
 18 19  1  0  0  0  0
 18 23  1  0  0  0  0
 19 20  1  0  0  0  0
 19 21  1  0  0  0  0
 19 22  1  0  0  0  0
 23 24  1  0  0  0  0
 23 25  2  0  0  0  0
 25 26  1  0  0  0  0
 26 27  1  1  0  0  0
 26 28  1  0  0  0  0
 26 47  1  0  0  0  0
 28 29  1  0  0  0  0
 29 41  1  0  0  0  0
 29 31  1  0  0  0  0
 29 30  1  1  0  0  0
 31 32  1  0  0  0  0
 31 33  1  0  0  0  0
 31 34  1  0  0  0  0
 34 35  1  0  0  0  0
 34 36  1  0  0  0  0
 34 37  1  0  0  0  0
 37 38  1  0  0  0  0
 37 39  1  0  0  0  0
 37 40  1  0  0  0  0
 41 42  1  0  0  0  0
 41 43  1  0  0  0  0
 41 44  1  0  0  0  0
 44 45  1  0  0  0  0
 44 46  1  0  0  0  0
 44 47  1  0  0  0  0
 47 48  1  1  0  0  0
 49 50  1  0  0  0  0
 49 51  2  0  0  0  0
 51 52  1  0  0  0  0
M  CHG  1  34   1
M  END
$$$$
