lig_CHEMBL1093087
 OpenBabel01042520483D

 66 70  0  0  1  0  0  0  0  0999 V2000
    4.0183    1.9759    2.8285 H   0  0  0  0  0  0  0  0  0  0  0  0
    3.0282    1.6825    2.4912 C   0  0  0  0  0  0  0  0  0  0  0  0
    1.9732    1.6179    3.3899 C   0  0  0  0  0  0  0  0  0  0  0  0
    2.1423    1.8567    4.4379 H   0  0  0  0  0  0  0  0  0  0  0  0
    0.7020    1.2300    2.9578 C   0  0  0  0  0  0  0  0  0  0  0  0
   -0.0581    1.1677    3.7320 H   0  0  0  0  0  0  0  0  0  0  0  0
    0.4460    0.8927    1.6171 C   0  0  0  0  0  0  0  0  0  0  0  0
   -0.8297    0.5227    1.1535 N   0  0  0  0  0  0  0  0  0  0  0  0
   -1.8978    0.7231    1.9756 C   0  0  0  0  0  0  0  0  0  0  0  0
   -1.7410    0.3912    3.0052 H   0  0  0  0  0  0  0  0  0  0  0  0
   -2.7589    0.1494    1.6569 H   0  0  0  0  0  0  0  0  0  0  0  0
   -2.3616    2.1810    1.8750 C   0  0  0  0  0  0  0  0  0  0  0  0
   -3.3434    2.3318    2.3319 H   0  0  0  0  0  0  0  0  0  0  0  0
   -1.6351    2.8754    2.3038 H   0  0  0  0  0  0  0  0  0  0  0  0
   -2.4761    2.5145    0.4282 N   0  3  0  0  0  0  0  0  0  0  0  0
   -2.8290    3.4543    0.2338 H   0  0  0  0  0  0  0  0  0  0  0  0
   -3.0496    1.8073   -0.0650 H   0  0  0  0  0  0  0  0  0  0  0  0
   -1.5337    2.3941    0.0261 H   0  0  0  0  0  0  0  0  0  0  0  0
   -0.8634   -0.5010    0.1298 C   0  0  0  0  0  0  0  0  0  0  0  0
   -0.2177   -0.2225   -0.7143 H   0  0  0  0  0  0  0  0  0  0  0  0
   -1.8960   -0.5541   -0.2381 H   0  0  0  0  0  0  0  0  0  0  0  0
   -0.5060   -1.8982    0.6842 C   0  0  2  0  0  0  0  0  0  0  0  0
   -1.1203   -2.0659    1.5812 H   0  0  0  0  0  0  0  0  0  0  0  0
    0.8819   -1.8679    1.1058 O   0  0  0  0  0  0  0  0  0  0  0  0
    1.5332   -3.1515    1.0791 C   0  0  2  0  0  0  0  0  0  0  0  0
    0.9813   -3.8282    1.7479 H   0  0  0  0  0  0  0  0  0  0  0  0
    2.9300   -3.0953    1.6802 C   0  0  0  0  0  0  0  0  0  0  0  0
    3.2004   -3.4554    3.0135 C   0  0  0  0  0  0  0  0  0  0  0  0
    2.3792   -3.7156    3.6879 H   0  0  0  0  0  0  0  0  0  0  0  0
    4.5309   -3.5693    3.4771 C   0  0  0  0  0  0  0  0  0  0  0  0
    4.8312   -4.0890    4.8644 C   0  0  0  0  0  0  0  0  0  0  0  0
    6.1603   -4.2554    5.1106 F   0  0  0  0  0  0  0  0  0  0  0  0
    4.2575   -5.3022    5.0973 F   0  0  0  0  0  0  0  0  0  0  0  0
    4.3696   -3.2625    5.8424 F   0  0  0  0  0  0  0  0  0  0  0  0
    5.5850   -3.2367    2.6161 C   0  0  0  0  0  0  0  0  0  0  0  0
    6.6192   -3.3411    2.9451 H   0  0  0  0  0  0  0  0  0  0  0  0
    5.3235   -2.8323    1.3120 C   0  0  0  0  0  0  0  0  0  0  0  0
    6.1570   -2.6553    0.6335 H   0  0  0  0  0  0  0  0  0  0  0  0
    4.0111   -2.8108    0.8323 C   0  0  0  0  0  0  0  0  0  0  0  0
    3.7787   -2.6043   -0.5341 N   0  0  0  0  0  0  0  0  0  0  0  0
    3.5231   -1.6395   -0.7288 H   0  0  0  0  0  0  0  0  0  0  0  0
    2.8964   -3.6200   -1.1038 C   0  0  1  0  0  0  0  0  0  0  0  0
    2.6907   -3.3324   -2.1415 H   0  0  0  0  0  0  0  0  0  0  0  0
    3.5154   -5.0212   -1.1386 C   0  0  0  0  0  0  0  0  0  0  0  0
    4.8505   -5.2474   -0.7856 C   0  0  0  0  0  0  0  0  0  0  0  0
    5.5473   -4.4183   -0.6883 H   0  0  0  0  0  0  0  0  0  0  0  0
    5.2808   -6.5249   -0.4412 C   0  0  0  0  0  0  0  0  0  0  0  0
    6.2925   -6.6669   -0.0712 H   0  0  0  0  0  0  0  0  0  0  0  0
    4.4010   -7.6001   -0.5134 C   0  0  0  0  0  0  0  0  0  0  0  0
    4.7158   -8.5827   -0.1761 H   0  0  0  0  0  0  0  0  0  0  0  0
    3.1277   -7.4187   -1.0382 C   0  0  0  0  0  0  0  0  0  0  0  0
    2.4492   -8.2615   -1.1385 H   0  0  0  0  0  0  0  0  0  0  0  0
    2.7050   -6.1434   -1.3969 C   0  0  0  0  0  0  0  0  0  0  0  0
    1.7055   -6.0403   -1.8118 H   0  0  0  0  0  0  0  0  0  0  0  0
    1.5493   -3.7348   -0.3585 C   0  0  2  0  0  0  0  0  0  0  0  0
    1.2284   -4.7782   -0.2681 H   0  0  0  0  0  0  0  0  0  0  0  0
    0.4461   -3.1402   -1.2413 C   0  0  0  0  0  0  0  0  0  0  0  0
    0.2087   -3.8171   -2.0704 H   0  0  0  0  0  0  0  0  0  0  0  0
    0.7811   -2.2039   -1.6958 H   0  0  0  0  0  0  0  0  0  0  0  0
   -0.7929   -2.9433   -0.4015 C   0  0  0  0  0  0  0  0  0  0  0  0
   -1.0746   -3.8948    0.0702 H   0  0  0  0  0  0  0  0  0  0  0  0
   -1.6432   -2.6971   -1.0474 H   0  0  0  0  0  0  0  0  0  0  0  0
    1.5382    0.9658    0.7329 C   0  0  0  0  0  0  0  0  0  0  0  0
    1.4382    0.7385   -0.3251 H   0  0  0  0  0  0  0  0  0  0  0  0
    2.8106    1.3558    1.1565 C   0  0  0  0  0  0  0  0  0  0  0  0
    3.6313    1.3943    0.4492 H   0  0  0  0  0  0  0  0  0  0  0  0
  1  2  1  0  0  0  0
  2  3  2  0  0  0  0
  2 65  1  0  0  0  0
  3  4  1  0  0  0  0
  3  5  1  0  0  0  0
  5  6  1  0  0  0  0
  5  7  2  0  0  0  0
  7  8  1  0  0  0  0
  7 63  1  0  0  0  0
  8  9  1  0  0  0  0
  8 19  1  0  0  0  0
  9 10  1  0  0  0  0
  9 11  1  0  0  0  0
  9 12  1  0  0  0  0
 12 13  1  0  0  0  0
 12 14  1  0  0  0  0
 12 15  1  0  0  0  0
 15 16  1  0  0  0  0
 15 17  1  0  0  0  0
 15 18  1  0  0  0  0
 19 20  1  0  0  0  0
 19 21  1  0  0  0  0
 19 22  1  0  0  0  0
 22 23  1  1  0  0  0
 22 24  1  0  0  0  0
 22 60  1  0  0  0  0
 24 25  1  0  0  0  0
 25 26  1  1  0  0  0
 25 27  1  0  0  0  0
 25 55  1  0  0  0  0
 27 28  2  0  0  0  0
 27 39  1  0  0  0  0
 28 29  1  0  0  0  0
 28 30  1  0  0  0  0
 30 31  1  0  0  0  0
 30 35  2  0  0  0  0
 31 32  1  0  0  0  0
 31 33  1  0  0  0  0
 31 34  1  0  0  0  0
 35 36  1  0  0  0  0
 35 37  1  0  0  0  0
 37 38  1  0  0  0  0
 37 39  2  0  0  0  0
 39 40  1  0  0  0  0
 40 41  1  0  0  0  0
 40 42  1  0  0  0  0
 42 55  1  0  0  0  0
 42 44  1  0  0  0  0
 42 43  1  6  0  0  0
 44 45  2  0  0  0  0
 44 53  1  0  0  0  0
 45 46  1  0  0  0  0
 45 47  1  0  0  0  0
 47 48  1  0  0  0  0
 47 49  2  0  0  0  0
 49 50  1  0  0  0  0
 49 51  1  0  0  0  0
 51 52  1  0  0  0  0
 51 53  2  0  0  0  0
 53 54  1  0  0  0  0
 55 56  1  1  0  0  0
 55 57  1  0  0  0  0
 57 58  1  0  0  0  0
 57 59  1  0  0  0  0
 57 60  1  0  0  0  0
 60 61  1  0  0  0  0
 60 62  1  0  0  0  0
 63 64  1  0  0  0  0
 63 65  2  0  0  0  0
 65 66  1  0  0  0  0
M  CHG  1  15   1
M  END
$$$$
