lig_CHEMBL1084676
 OpenBabel01042520483D

 65 68  0  0  1  0  0  0  0  0999 V2000
    5.0575   -8.5134   -2.0223 H   0  0  0  0  0  0  0  0  0  0  0  0
    4.6541   -7.5207   -1.8066 C   0  0  0  0  0  0  0  0  0  0  0  0
    4.1931   -7.2006   -0.5297 C   0  0  0  0  0  0  0  0  0  0  0  0
    4.2879   -7.9303    0.2809 H   0  0  0  0  0  0  0  0  0  0  0  0
    3.6747   -5.9338   -0.2749 C   0  0  0  0  0  0  0  0  0  0  0  0
    3.4205   -5.6788    0.7497 H   0  0  0  0  0  0  0  0  0  0  0  0
    3.5904   -4.9670   -1.2941 C   0  0  0  0  0  0  0  0  0  0  0  0
    2.8964   -3.6200   -1.1038 C   0  0  2  0  0  0  0  0  0  0  0  0
    2.7043   -3.3796   -2.1649 H   0  0  0  0  0  0  0  0  0  0  0  0
    3.7787   -2.6043   -0.5341 N   0  0  0  0  0  0  0  0  0  0  0  0
    4.6605   -2.7284   -1.0322 H   0  0  0  0  0  0  0  0  0  0  0  0
    4.0111   -2.8108    0.8323 C   0  0  0  0  0  0  0  0  0  0  0  0
    5.3235   -2.8323    1.3120 C   0  0  0  0  0  0  0  0  0  0  0  0
    6.0660   -2.2477    0.7712 H   0  0  0  0  0  0  0  0  0  0  0  0
    5.5850   -3.2367    2.6161 C   0  0  0  0  0  0  0  0  0  0  0  0
    6.5860   -3.0752    3.0218 H   0  0  0  0  0  0  0  0  0  0  0  0
    4.5309   -3.5693    3.4771 C   0  0  0  0  0  0  0  0  0  0  0  0
    4.8312   -4.0890    4.8644 C   0  0  0  0  0  0  0  0  0  0  0  0
    6.1603   -4.2554    5.1106 F   0  0  0  0  0  0  0  0  0  0  0  0
    4.2575   -5.3022    5.0973 F   0  0  0  0  0  0  0  0  0  0  0  0
    4.3696   -3.2625    5.8424 F   0  0  0  0  0  0  0  0  0  0  0  0
    3.2004   -3.4554    3.0135 C   0  0  0  0  0  0  0  0  0  0  0  0
    2.4109   -3.3693    3.7571 H   0  0  0  0  0  0  0  0  0  0  0  0
    2.9300   -3.0953    1.6802 C   0  0  0  0  0  0  0  0  0  0  0  0
    1.5332   -3.1515    1.0791 C   0  0  1  0  0  0  0  0  0  0  0  0
    0.9449   -3.8333    1.7112 H   0  0  0  0  0  0  0  0  0  0  0  0
    0.8819   -1.8679    1.1058 O   0  0  0  0  0  0  0  0  0  0  0  0
   -0.5060   -1.8982    0.6842 C   0  0  1  0  0  0  0  0  0  0  0  0
   -1.1289   -2.1037    1.5640 H   0  0  0  0  0  0  0  0  0  0  0  0
   -0.8634   -0.5010    0.1298 C   0  0  0  0  0  0  0  0  0  0  0  0
   -0.1378   -0.2051   -0.6389 H   0  0  0  0  0  0  0  0  0  0  0  0
   -1.8615   -0.4959   -0.3239 H   0  0  0  0  0  0  0  0  0  0  0  0
   -0.8297    0.5227    1.1535 N   0  0  0  0  0  0  0  0  0  0  0  0
   -0.2697    1.3403    0.9427 H   0  0  0  0  0  0  0  0  0  0  0  0
   -1.8978    0.7231    1.9756 C   0  0  0  0  0  0  0  0  0  0  0  0
   -2.9743    0.1511    1.9024 O   0  0  0  0  0  0  0  0  0  0  0  0
   -1.6014    1.6933    2.8742 O   0  0  0  0  0  0  0  0  0  0  0  0
   -2.7396    2.1026    3.6482 C   0  0  0  0  0  0  0  0  0  0  0  0
   -3.4305    2.6534    2.9990 H   0  0  0  0  0  0  0  0  0  0  0  0
   -3.2633    1.2367    4.0664 H   0  0  0  0  0  0  0  0  0  0  0  0
   -2.2421    3.0213    4.7604 C   0  0  0  0  0  0  0  0  0  0  0  0
   -1.7595    3.8968    4.3101 H   0  0  0  0  0  0  0  0  0  0  0  0
   -3.0444    3.3430    5.4315 H   0  0  0  0  0  0  0  0  0  0  0  0
   -1.1661    2.3386    5.5956 N   0  3  0  0  0  0  0  0  0  0  0  0
   -0.5027    1.9403    4.9120 H   0  0  0  0  0  0  0  0  0  0  0  0
   -1.6652    1.1955    6.4349 C   0  0  0  0  0  0  0  0  0  0  0  0
   -2.2563    1.6019    7.2624 H   0  0  0  0  0  0  0  0  0  0  0  0
   -2.2667    0.5268    5.8191 H   0  0  0  0  0  0  0  0  0  0  0  0
   -0.7923    0.6530    6.8081 H   0  0  0  0  0  0  0  0  0  0  0  0
   -0.4119    3.3338    6.4326 C   0  0  0  0  0  0  0  0  0  0  0  0
    0.0620    4.0549    5.7615 H   0  0  0  0  0  0  0  0  0  0  0  0
   -1.1224    3.8304    7.1000 H   0  0  0  0  0  0  0  0  0  0  0  0
    0.3495    2.7968    7.0034 H   0  0  0  0  0  0  0  0  0  0  0  0
   -0.7929   -2.9433   -0.4015 C   0  0  0  0  0  0  0  0  0  0  0  0
   -1.6522   -2.6803   -1.0256 H   0  0  0  0  0  0  0  0  0  0  0  0
   -1.0598   -3.8942    0.0765 H   0  0  0  0  0  0  0  0  0  0  0  0
    0.4461   -3.1402   -1.2413 C   0  0  0  0  0  0  0  0  0  0  0  0
    0.2266   -3.8226   -2.0697 H   0  0  0  0  0  0  0  0  0  0  0  0
    0.7767   -2.1875   -1.6692 H   0  0  0  0  0  0  0  0  0  0  0  0
    1.5493   -3.7348   -0.3585 C   0  0  1  0  0  0  0  0  0  0  0  0
    1.2817   -4.7950   -0.2046 H   0  0  0  0  0  0  0  0  0  0  0  0
    4.1076   -5.2902   -2.5569 C   0  0  0  0  0  0  0  0  0  0  0  0
    4.1997   -4.5268   -3.3281 H   0  0  0  0  0  0  0  0  0  0  0  0
    4.6253   -6.5605   -2.8131 C   0  0  0  0  0  0  0  0  0  0  0  0
    5.0504   -6.7664   -3.7925 H   0  0  0  0  0  0  0  0  0  0  0  0
  1  2  1  0  0  0  0
  2  3  2  0  0  0  0
  2 64  1  0  0  0  0
  3  4  1  0  0  0  0
  3  5  1  0  0  0  0
  5  6  1  0  0  0  0
  5  7  2  0  0  0  0
  7 62  1  0  0  0  0
  7  8  1  0  0  0  0
  8 10  1  0  0  0  0
  8 60  1  0  0  0  0
  8  9  1  6  0  0  0
 10 12  1  0  0  0  0
 10 11  1  0  0  0  0
 12 13  2  0  0  0  0
 12 24  1  0  0  0  0
 13 15  1  0  0  0  0
 13 14  1  0  0  0  0
 15 17  2  0  0  0  0
 15 16  1  0  0  0  0
 17 22  1  0  0  0  0
 17 18  1  0  0  0  0
 18 19  1  0  0  0  0
 18 20  1  0  0  0  0
 18 21  1  0  0  0  0
 22 24  2  0  0  0  0
 22 23  1  0  0  0  0
 24 25  1  0  0  0  0
 25 27  1  0  0  0  0
 25 60  1  0  0  0  0
 25 26  1  6  0  0  0
 27 28  1  0  0  0  0
 28 54  1  0  0  0  0
 28 29  1  6  0  0  0
 28 30  1  0  0  0  0
 30 31  1  0  0  0  0
 30 32  1  0  0  0  0
 30 33  1  0  0  0  0
 33 34  1  0  0  0  0
 33 35  1  0  0  0  0
 35 36  2  0  0  0  0
 35 37  1  0  0  0  0
 37 38  1  0  0  0  0
 38 39  1  0  0  0  0
 38 40  1  0  0  0  0
 38 41  1  0  0  0  0
 41 42  1  0  0  0  0
 41 43  1  0  0  0  0
 41 44  1  0  0  0  0
 44 45  1  0  0  0  0
 44 46  1  0  0  0  0
 44 50  1  0  0  0  0
 46 47  1  0  0  0  0
 46 48  1  0  0  0  0
 46 49  1  0  0  0  0
 50 51  1  0  0  0  0
 50 52  1  0  0  0  0
 50 53  1  0  0  0  0
 54 57  1  0  0  0  0
 54 55  1  0  0  0  0
 54 56  1  0  0  0  0
 57 60  1  0  0  0  0
 57 58  1  0  0  0  0
 57 59  1  0  0  0  0
 60 61  1  1  0  0  0
 62 63  1  0  0  0  0
 62 64  2  0  0  0  0
 64 65  1  0  0  0  0
M  CHG  1  44   1
M  END
$$$$
