lig_CHEMBL1088740
 OpenBabel01042520483D

 42 45  0  0  1  0  0  0  0  0999 V2000
    5.0394   -8.5148   -2.0145 H   0  0  0  0  0  0  0  0  0  0  0  0
    4.6541   -7.5207   -1.8066 C   0  0  0  0  0  0  0  0  0  0  0  0
    4.1931   -7.2006   -0.5297 C   0  0  0  0  0  0  0  0  0  0  0  0
    4.2632   -7.9347    0.2690 H   0  0  0  0  0  0  0  0  0  0  0  0
    3.6747   -5.9338   -0.2749 C   0  0  0  0  0  0  0  0  0  0  0  0
    3.3616   -5.7127    0.7392 H   0  0  0  0  0  0  0  0  0  0  0  0
    3.5904   -4.9670   -1.2941 C   0  0  0  0  0  0  0  0  0  0  0  0
    2.8964   -3.6200   -1.1038 C   0  0  2  0  0  0  0  0  0  0  0  0
    2.7604   -3.2765   -2.1344 H   0  0  0  0  0  0  0  0  0  0  0  0
    3.7787   -2.6043   -0.5341 N   0  0  0  0  0  0  0  0  0  0  0  0
    4.6253   -2.4382   -1.0683 H   0  0  0  0  0  0  0  0  0  0  0  0
    4.0111   -2.8108    0.8323 C   0  0  0  0  0  0  0  0  0  0  0  0
    5.3235   -2.8323    1.3120 C   0  0  0  0  0  0  0  0  0  0  0  0
    6.1422   -2.7593    0.6030 H   0  0  0  0  0  0  0  0  0  0  0  0
    5.5850   -3.2367    2.6161 C   0  0  0  0  0  0  0  0  0  0  0  0
    6.6066   -3.4755    2.8997 H   0  0  0  0  0  0  0  0  0  0  0  0
    4.5309   -3.5693    3.4771 C   0  0  0  0  0  0  0  0  0  0  0  0
    4.8312   -4.0890    4.8644 C   0  0  0  0  0  0  0  0  0  0  0  0
    5.5034   -3.4255    5.4105 H   0  0  0  0  0  0  0  0  0  0  0  0
    5.3128   -5.0717    4.7500 H   0  0  0  0  0  0  0  0  0  0  0  0
    3.9180   -4.2491    5.4421 H   0  0  0  0  0  0  0  0  0  0  0  0
    3.2004   -3.4554    3.0135 C   0  0  0  0  0  0  0  0  0  0  0  0
    2.3999   -3.8480    3.6370 H   0  0  0  0  0  0  0  0  0  0  0  0
    2.9300   -3.0953    1.6802 C   0  0  0  0  0  0  0  0  0  0  0  0
    1.5332   -3.1515    1.0791 C   0  0  1  0  0  0  0  0  0  0  0  0
    0.8857   -3.7757    1.7240 H   0  0  0  0  0  0  0  0  0  0  0  0
    0.8819   -1.8679    1.1058 O   0  0  0  0  0  0  0  0  0  0  0  0
   -0.5060   -1.8982    0.6842 C   0  0  0  0  0  0  0  0  0  0  0  0
   -1.1124   -2.1256    1.5678 H   0  0  0  0  0  0  0  0  0  0  0  0
   -0.8141   -0.8955    0.3738 H   0  0  0  0  0  0  0  0  0  0  0  0
   -0.7929   -2.9433   -0.4015 C   0  0  0  0  0  0  0  0  0  0  0  0
   -1.1095   -3.9086    0.0075 H   0  0  0  0  0  0  0  0  0  0  0  0
   -1.6305   -2.6214   -1.0351 H   0  0  0  0  0  0  0  0  0  0  0  0
    0.4461   -3.1402   -1.2413 C   0  0  0  0  0  0  0  0  0  0  0  0
    0.7515   -2.1954   -1.7020 H   0  0  0  0  0  0  0  0  0  0  0  0
    0.2179   -3.8268   -2.0677 H   0  0  0  0  0  0  0  0  0  0  0  0
    1.5493   -3.7348   -0.3585 C   0  0  1  0  0  0  0  0  0  0  0  0
    1.3469   -4.8116   -0.2369 H   0  0  0  0  0  0  0  0  0  0  0  0
    4.1076   -5.2902   -2.5569 C   0  0  0  0  0  0  0  0  0  0  0  0
    4.1491   -4.5549   -3.3561 H   0  0  0  0  0  0  0  0  0  0  0  0
    4.6253   -6.5605   -2.8131 C   0  0  0  0  0  0  0  0  0  0  0  0
    5.0293   -6.7837   -3.7971 H   0  0  0  0  0  0  0  0  0  0  0  0
  1  2  1  0  0  0  0
  2  3  2  0  0  0  0
  2 41  1  0  0  0  0
  3  4  1  0  0  0  0
  3  5  1  0  0  0  0
  5  6  1  0  0  0  0
  5  7  2  0  0  0  0
  7 39  1  0  0  0  0
  7  8  1  0  0  0  0
  8 10  1  0  0  0  0
  8 37  1  0  0  0  0
  8  9  1  1  0  0  0
 10 12  1  0  0  0  0
 10 11  1  0  0  0  0
 12 13  2  0  0  0  0
 12 24  1  0  0  0  0
 13 15  1  0  0  0  0
 13 14  1  0  0  0  0
 15 17  2  0  0  0  0
 15 16  1  0  0  0  0
 17 22  1  0  0  0  0
 17 18  1  0  0  0  0
 18 19  1  0  0  0  0
 18 20  1  0  0  0  0
 18 21  1  0  0  0  0
 22 24  2  0  0  0  0
 22 23  1  0  0  0  0
 24 25  1  0  0  0  0
 25 27  1  0  0  0  0
 25 37  1  0  0  0  0
 25 26  1  6  0  0  0
 27 28  1  0  0  0  0
 28 31  1  0  0  0  0
 28 29  1  0  0  0  0
 28 30  1  0  0  0  0
 31 34  1  0  0  0  0
 31 32  1  0  0  0  0
 31 33  1  0  0  0  0
 34 37  1  0  0  0  0
 34 35  1  0  0  0  0
 34 36  1  0  0  0  0
 37 38  1  6  0  0  0
 39 40  1  0  0  0  0
 39 41  2  0  0  0  0
 41 42  1  0  0  0  0
M  END
$$$$
