lig_CHEMBL1077227
 OpenBabel01042520483D

 57 60  0  0  1  0  0  0  0  0999 V2000
    4.6482   -7.9048   -2.9253 H   0  0  0  0  0  0  0  0  0  0  0  0
    4.4097   -7.0881   -2.2570 C   0  0  0  0  0  0  0  0  0  0  0  0
    4.6316   -7.0172   -0.9002 C   0  0  0  0  0  0  0  0  0  0  0  0
    5.0916   -7.8164   -0.3314 H   0  0  0  0  0  0  0  0  0  0  0  0
    4.1829   -5.7823   -0.3479 C   0  0  0  0  0  0  0  0  0  0  0  0
    4.2568   -5.5185    0.7016 H   0  0  0  0  0  0  0  0  0  0  0  0
    3.5904   -4.9670   -1.2941 C   0  0  0  0  0  0  0  0  0  0  0  0
    2.8964   -3.6200   -1.1038 C   0  0  2  0  0  0  0  0  0  0  0  0
    2.5829   -3.2643   -2.0953 H   0  0  0  0  0  0  0  0  0  0  0  0
    3.7787   -2.6043   -0.5341 N   0  0  0  0  0  0  0  0  0  0  0  0
    3.5540   -1.6381   -0.7590 H   0  0  0  0  0  0  0  0  0  0  0  0
    4.0111   -2.8108    0.8323 C   0  0  0  0  0  0  0  0  0  0  0  0
    5.3235   -2.8323    1.3120 C   0  0  0  0  0  0  0  0  0  0  0  0
    6.1466   -2.5449    0.6635 H   0  0  0  0  0  0  0  0  0  0  0  0
    5.5850   -3.2367    2.6161 C   0  0  0  0  0  0  0  0  0  0  0  0
    6.6304   -3.2909    2.9096 H   0  0  0  0  0  0  0  0  0  0  0  0
    4.5309   -3.5693    3.4771 C   0  0  0  0  0  0  0  0  0  0  0  0
    4.8312   -4.0890    4.8644 C   0  0  0  0  0  0  0  0  0  0  0  0
    6.3458   -4.1706    5.1706 C   0  0  0  0  0  0  0  0  0  0  0  0
    6.8195   -3.1826    5.1234 H   0  0  0  0  0  0  0  0  0  0  0  0
    6.5300   -4.5688    6.1749 H   0  0  0  0  0  0  0  0  0  0  0  0
    6.8617   -4.8303    4.4633 H   0  0  0  0  0  0  0  0  0  0  0  0
    4.1938   -3.1547    5.9146 C   0  0  0  0  0  0  0  0  0  0  0  0
    3.1054   -3.0915    5.8036 H   0  0  0  0  0  0  0  0  0  0  0  0
    4.3918   -3.5133    6.9320 H   0  0  0  0  0  0  0  0  0  0  0  0
    4.5930   -2.1375    5.8356 H   0  0  0  0  0  0  0  0  0  0  0  0
    4.2576   -5.5098    5.0555 C   0  0  0  0  0  0  0  0  0  0  0  0
    3.1680   -5.5342    4.9524 H   0  0  0  0  0  0  0  0  0  0  0  0
    4.6769   -6.2106    4.3244 H   0  0  0  0  0  0  0  0  0  0  0  0
    4.4916   -5.8956    6.0540 H   0  0  0  0  0  0  0  0  0  0  0  0
    3.2004   -3.4554    3.0135 C   0  0  0  0  0  0  0  0  0  0  0  0
    2.3727   -3.6742    3.6895 H   0  0  0  0  0  0  0  0  0  0  0  0
    2.9300   -3.0953    1.6802 C   0  0  0  0  0  0  0  0  0  0  0  0
    1.5332   -3.1515    1.0791 C   0  0  1  0  0  0  0  0  0  0  0  0
    0.9467   -3.8393    1.7040 H   0  0  0  0  0  0  0  0  0  0  0  0
    0.8819   -1.8679    1.1058 O   0  0  0  0  0  0  0  0  0  0  0  0
   -0.5060   -1.8982    0.6842 C   0  0  1  0  0  0  0  0  0  0  0  0
   -1.1272   -2.1087    1.5636 H   0  0  0  0  0  0  0  0  0  0  0  0
   -0.8634   -0.5010    0.1298 C   0  0  0  0  0  0  0  0  0  0  0  0
   -0.2072   -0.2271   -0.7031 H   0  0  0  0  0  0  0  0  0  0  0  0
   -1.9125   -0.4418   -0.1771 H   0  0  0  0  0  0  0  0  0  0  0  0
   -0.6431    0.5318    1.1931 N   0  3  0  0  0  0  0  0  0  0  0  0
   -1.1903    0.2977    2.0306 H   0  0  0  0  0  0  0  0  0  0  0  0
    0.3492    0.4527    1.4814 H   0  0  0  0  0  0  0  0  0  0  0  0
   -0.9558    1.9188    0.7614 C   0  0  0  0  0  0  0  0  0  0  0  0
   -0.3015    2.1754   -0.0746 H   0  0  0  0  0  0  0  0  0  0  0  0
   -2.0073    1.9555    0.4676 H   0  0  0  0  0  0  0  0  0  0  0  0
   -0.7731    2.5775    1.6128 H   0  0  0  0  0  0  0  0  0  0  0  0
   -0.7929   -2.9433   -0.4015 C   0  0  0  0  0  0  0  0  0  0  0  0
   -1.0935   -3.8971    0.0456 H   0  0  0  0  0  0  0  0  0  0  0  0
   -1.6185   -2.6129   -1.0406 H   0  0  0  0  0  0  0  0  0  0  0  0
    0.4461   -3.1402   -1.2413 C   0  0  0  0  0  0  0  0  0  0  0  0
    0.2109   -3.8309   -2.0613 H   0  0  0  0  0  0  0  0  0  0  0  0
    0.7327   -2.1984   -1.7205 H   0  0  0  0  0  0  0  0  0  0  0  0
    1.5493   -3.7348   -0.3585 C   0  0  1  0  0  0  0  0  0  0  0  0
    1.3567   -4.8156   -0.2761 H   0  0  0  0  0  0  0  0  0  0  0  0
    3.6840   -5.6661   -2.8614 S   0  0  0  0  0  0  0  0  0  0  0  0
  1  2  1  0  0  0  0
  2  3  2  0  0  0  0
  2 57  1  0  0  0  0
  3  4  1  0  0  0  0
  3  5  1  0  0  0  0
  5  6  1  0  0  0  0
  5  7  2  0  0  0  0
  7 57  1  0  0  0  0
  8 10  1  0  0  0  0
  8 55  1  0  0  0  0
  8  9  1  1  0  0  0
  8  7  1  0  0  0  0
 10 11  1  0  0  0  0
 10 12  1  0  0  0  0
 12 13  2  0  0  0  0
 12 33  1  0  0  0  0
 13 14  1  0  0  0  0
 13 15  1  0  0  0  0
 15 16  1  0  0  0  0
 15 17  2  0  0  0  0
 17 18  1  0  0  0  0
 17 31  1  0  0  0  0
 18 19  1  0  0  0  0
 18 23  1  0  0  0  0
 18 27  1  0  0  0  0
 19 20  1  0  0  0  0
 19 21  1  0  0  0  0
 19 22  1  0  0  0  0
 23 24  1  0  0  0  0
 23 25  1  0  0  0  0
 23 26  1  0  0  0  0
 27 28  1  0  0  0  0
 27 29  1  0  0  0  0
 27 30  1  0  0  0  0
 31 32  1  0  0  0  0
 31 33  2  0  0  0  0
 33 34  1  0  0  0  0
 34 35  1  1  0  0  0
 34 36  1  0  0  0  0
 34 55  1  0  0  0  0
 36 37  1  0  0  0  0
 37 49  1  0  0  0  0
 37 39  1  0  0  0  0
 37 38  1  1  0  0  0
 39 40  1  0  0  0  0
 39 41  1  0  0  0  0
 39 42  1  0  0  0  0
 42 43  1  0  0  0  0
 42 44  1  0  0  0  0
 42 45  1  0  0  0  0
 45 46  1  0  0  0  0
 45 47  1  0  0  0  0
 45 48  1  0  0  0  0
 49 50  1  0  0  0  0
 49 51  1  0  0  0  0
 49 52  1  0  0  0  0
 52 53  1  0  0  0  0
 52 54  1  0  0  0  0
 52 55  1  0  0  0  0
 55 56  1  6  0  0  0
M  CHG  1  42   1
M  END
$$$$
