lig_CHEMBL1085666
 OpenBabel01042520483D

 48 51  0  0  1  0  0  0  0  0999 V2000
    5.0393   -8.5159   -2.0115 H   0  0  0  0  0  0  0  0  0  0  0  0
    4.6541   -7.5207   -1.8066 C   0  0  0  0  0  0  0  0  0  0  0  0
    4.1931   -7.2006   -0.5297 C   0  0  0  0  0  0  0  0  0  0  0  0
    4.2051   -7.9485    0.2592 H   0  0  0  0  0  0  0  0  0  0  0  0
    3.6747   -5.9338   -0.2749 C   0  0  0  0  0  0  0  0  0  0  0  0
    3.3056   -5.7477    0.7289 H   0  0  0  0  0  0  0  0  0  0  0  0
    3.5904   -4.9670   -1.2941 C   0  0  0  0  0  0  0  0  0  0  0  0
    2.8964   -3.6200   -1.1038 C   0  0  2  0  0  0  0  0  0  0  0  0
    2.6499   -3.2441   -2.1038 H   0  0  0  0  0  0  0  0  0  0  0  0
    3.7787   -2.6043   -0.5341 N   0  0  0  0  0  0  0  0  0  0  0  0
    4.6471   -2.5123   -1.0586 H   0  0  0  0  0  0  0  0  0  0  0  0
    4.0111   -2.8108    0.8323 C   0  0  0  0  0  0  0  0  0  0  0  0
    5.3235   -2.8323    1.3120 C   0  0  0  0  0  0  0  0  0  0  0  0
    6.1589   -2.7449    0.6175 H   0  0  0  0  0  0  0  0  0  0  0  0
    5.5850   -3.2367    2.6161 C   0  0  0  0  0  0  0  0  0  0  0  0
    6.6120   -3.4398    2.9116 H   0  0  0  0  0  0  0  0  0  0  0  0
    4.5309   -3.5693    3.4771 C   0  0  0  0  0  0  0  0  0  0  0  0
    4.8312   -4.0890    4.8644 C   0  0  0  0  0  0  0  0  0  0  0  0
    6.1603   -4.2554    5.1106 F   0  0  0  0  0  0  0  0  0  0  0  0
    4.2575   -5.3022    5.0973 F   0  0  0  0  0  0  0  0  0  0  0  0
    4.3696   -3.2625    5.8424 F   0  0  0  0  0  0  0  0  0  0  0  0
    3.2004   -3.4554    3.0135 C   0  0  0  0  0  0  0  0  0  0  0  0
    2.4120   -3.8883    3.6271 H   0  0  0  0  0  0  0  0  0  0  0  0
    2.9300   -3.0953    1.6802 C   0  0  0  0  0  0  0  0  0  0  0  0
    1.5332   -3.1515    1.0791 C   0  0  1  0  0  0  0  0  0  0  0  0
    0.9597   -3.8030    1.7505 H   0  0  0  0  0  0  0  0  0  0  0  0
    0.8819   -1.8679    1.1058 O   0  0  0  0  0  0  0  0  0  0  0  0
   -0.5060   -1.8982    0.6842 C   0  0  1  0  0  0  0  0  0  0  0  0
   -1.1221   -2.1076    1.5695 H   0  0  0  0  0  0  0  0  0  0  0  0
   -0.8634   -0.5010    0.1298 C   0  0  0  0  0  0  0  0  0  0  0  0
   -0.2497   -0.2463   -0.7405 H   0  0  0  0  0  0  0  0  0  0  0  0
   -1.9246   -0.4141   -0.1258 H   0  0  0  0  0  0  0  0  0  0  0  0
   -0.5613    0.5283    1.1524 N   0  3  0  0  0  0  0  0  0  0  0  0
   -0.6720    1.4792    0.7831 H   0  0  0  0  0  0  0  0  0  0  0  0
   -1.1447    0.4319    1.9912 H   0  0  0  0  0  0  0  0  0  0  0  0
    0.4228    0.4051    1.4460 H   0  0  0  0  0  0  0  0  0  0  0  0
   -0.7929   -2.9433   -0.4015 C   0  0  0  0  0  0  0  0  0  0  0  0
   -1.6094   -2.6374   -1.0649 H   0  0  0  0  0  0  0  0  0  0  0  0
   -1.0848   -3.9100    0.0287 H   0  0  0  0  0  0  0  0  0  0  0  0
    0.4461   -3.1402   -1.2413 C   0  0  0  0  0  0  0  0  0  0  0  0
    0.7368   -2.1926   -1.7123 H   0  0  0  0  0  0  0  0  0  0  0  0
    0.2077   -3.8236   -2.0664 H   0  0  0  0  0  0  0  0  0  0  0  0
    1.5493   -3.7348   -0.3585 C   0  0  1  0  0  0  0  0  0  0  0  0
    1.2646   -4.7885   -0.2518 H   0  0  0  0  0  0  0  0  0  0  0  0
    4.1076   -5.2902   -2.5569 C   0  0  0  0  0  0  0  0  0  0  0  0
    4.0832   -4.5694   -3.3719 H   0  0  0  0  0  0  0  0  0  0  0  0
    4.6253   -6.5605   -2.8131 C   0  0  0  0  0  0  0  0  0  0  0  0
    4.9882   -6.8147   -3.8012 H   0  0  0  0  0  0  0  0  0  0  0  0
  1  2  1  0  0  0  0
  2  3  2  0  0  0  0
  2 47  1  0  0  0  0
  3  4  1  0  0  0  0
  3  5  1  0  0  0  0
  5  6  1  0  0  0  0
  5  7  2  0  0  0  0
  7 45  1  0  0  0  0
  7  8  1  0  0  0  0
  8 10  1  0  0  0  0
  8 43  1  0  0  0  0
  8  9  1  1  0  0  0
 10 12  1  0  0  0  0
 10 11  1  0  0  0  0
 12 13  2  0  0  0  0
 12 24  1  0  0  0  0
 13 15  1  0  0  0  0
 13 14  1  0  0  0  0
 15 17  2  0  0  0  0
 15 16  1  0  0  0  0
 17 22  1  0  0  0  0
 17 18  1  0  0  0  0
 18 19  1  0  0  0  0
 18 20  1  0  0  0  0
 18 21  1  0  0  0  0
 22 24  2  0  0  0  0
 22 23  1  0  0  0  0
 24 25  1  0  0  0  0
 25 27  1  0  0  0  0
 25 43  1  0  0  0  0
 25 26  1  6  0  0  0
 27 28  1  0  0  0  0
 28 37  1  0  0  0  0
 28 29  1  6  0  0  0
 28 30  1  0  0  0  0
 30 31  1  0  0  0  0
 30 32  1  0  0  0  0
 30 33  1  0  0  0  0
 33 34  1  0  0  0  0
 33 35  1  0  0  0  0
 33 36  1  0  0  0  0
 37 40  1  0  0  0  0
 37 38  1  0  0  0  0
 37 39  1  0  0  0  0
 40 43  1  0  0  0  0
 40 41  1  0  0  0  0
 40 42  1  0  0  0  0
 43 44  1  6  0  0  0
 45 46  1  0  0  0  0
 45 47  2  0  0  0  0
 47 48  1  0  0  0  0
M  CHG  1  33   1
M  END
$$$$
