lig_CHEMBL1085692
 OpenBabel01042520483D

 64 67  0  0  1  0  0  0  0  0999 V2000
    5.0612   -8.5035   -2.0188 H   0  0  0  0  0  0  0  0  0  0  0  0
    4.6541   -7.5207   -1.8066 C   0  0  0  0  0  0  0  0  0  0  0  0
    4.1931   -7.2006   -0.5297 C   0  0  0  0  0  0  0  0  0  0  0  0
    4.2774   -7.9170    0.2816 H   0  0  0  0  0  0  0  0  0  0  0  0
    3.6747   -5.9338   -0.2749 C   0  0  0  0  0  0  0  0  0  0  0  0
    3.4027   -5.6854    0.7450 H   0  0  0  0  0  0  0  0  0  0  0  0
    3.5904   -4.9670   -1.2941 C   0  0  0  0  0  0  0  0  0  0  0  0
    2.8964   -3.6200   -1.1038 C   0  0  2  0  0  0  0  0  0  0  0  0
    2.6638   -3.4378   -2.1597 H   0  0  0  0  0  0  0  0  0  0  0  0
    3.7787   -2.6043   -0.5341 N   0  0  0  0  0  0  0  0  0  0  0  0
    4.6604   -2.6463   -1.0411 H   0  0  0  0  0  0  0  0  0  0  0  0
    4.0111   -2.8108    0.8323 C   0  0  0  0  0  0  0  0  0  0  0  0
    5.3235   -2.8323    1.3120 C   0  0  0  0  0  0  0  0  0  0  0  0
    6.2709   -2.1840    0.6175 F   0  0  0  0  0  0  0  0  0  0  0  0
    5.5850   -3.2367    2.6161 C   0  0  0  0  0  0  0  0  0  0  0  0
    6.5977   -3.1299    2.9930 H   0  0  0  0  0  0  0  0  0  0  0  0
    4.5309   -3.5693    3.4771 C   0  0  0  0  0  0  0  0  0  0  0  0
    4.9501   -3.9075    5.2943 Br  0  0  0  0  0  0  0  0  0  0  0  0
    3.2004   -3.4554    3.0135 C   0  0  0  0  0  0  0  0  0  0  0  0
    2.3990   -3.4545    3.7475 H   0  0  0  0  0  0  0  0  0  0  0  0
    2.9300   -3.0953    1.6802 C   0  0  0  0  0  0  0  0  0  0  0  0
    1.5332   -3.1515    1.0791 C   0  0  1  0  0  0  0  0  0  0  0  0
    0.9409   -3.8232    1.7164 H   0  0  0  0  0  0  0  0  0  0  0  0
    0.8819   -1.8679    1.1058 O   0  0  0  0  0  0  0  0  0  0  0  0
   -0.5060   -1.8982    0.6842 C   0  0  1  0  0  0  0  0  0  0  0  0
   -1.1163   -2.1092    1.5726 H   0  0  0  0  0  0  0  0  0  0  0  0
   -0.8634   -0.5010    0.1298 C   0  0  0  0  0  0  0  0  0  0  0  0
   -1.8625   -0.5259   -0.3206 H   0  0  0  0  0  0  0  0  0  0  0  0
   -0.1389   -0.2120   -0.6407 H   0  0  0  0  0  0  0  0  0  0  0  0
   -0.8297    0.5227    1.1535 N   0  0  0  0  0  0  0  0  0  0  0  0
   -0.0242    1.1339    1.1861 H   0  0  0  0  0  0  0  0  0  0  0  0
   -1.8978    0.7231    1.9756 C   0  0  0  0  0  0  0  0  0  0  0  0
   -2.9743    0.1511    1.9024 O   0  0  0  0  0  0  0  0  0  0  0  0
   -1.6858    1.8486    2.9525 C   0  0  0  0  0  0  0  0  0  0  0  0
   -0.6469    1.8463    3.2987 H   0  0  0  0  0  0  0  0  0  0  0  0
   -2.3094    1.6712    3.8367 H   0  0  0  0  0  0  0  0  0  0  0  0
   -2.0085    3.1734    2.2685 C   0  0  0  0  0  0  0  0  0  0  0  0
   -1.8048    3.9941    2.9631 H   0  0  0  0  0  0  0  0  0  0  0  0
   -1.3268    3.3213    1.4224 H   0  0  0  0  0  0  0  0  0  0  0  0
   -3.4445    3.2847    1.7271 C   0  0  0  0  0  0  0  0  0  0  0  0
   -3.6189    2.5440    0.9388 H   0  0  0  0  0  0  0  0  0  0  0  0
   -3.6248    4.2779    1.3069 H   0  0  0  0  0  0  0  0  0  0  0  0
   -4.4748    3.0479    2.8032 N   0  3  0  0  0  0  0  0  0  0  0  0
   -4.2985    2.1096    3.1951 H   0  0  0  0  0  0  0  0  0  0  0  0
   -4.4153    4.0582    3.9151 C   0  0  0  0  0  0  0  0  0  0  0  0
   -5.2736    3.9040    4.5732 H   0  0  0  0  0  0  0  0  0  0  0  0
   -3.4929    3.8996    4.4776 H   0  0  0  0  0  0  0  0  0  0  0  0
   -4.4366    5.0590    3.4739 H   0  0  0  0  0  0  0  0  0  0  0  0
   -5.8677    2.9500    2.2355 C   0  0  0  0  0  0  0  0  0  0  0  0
   -6.5015    2.4892    2.9987 H   0  0  0  0  0  0  0  0  0  0  0  0
   -5.8409    2.3155    1.3461 H   0  0  0  0  0  0  0  0  0  0  0  0
   -6.2169    3.9565    1.9916 H   0  0  0  0  0  0  0  0  0  0  0  0
   -0.7929   -2.9433   -0.4015 C   0  0  0  0  0  0  0  0  0  0  0  0
   -1.6569   -2.6867   -1.0226 H   0  0  0  0  0  0  0  0  0  0  0  0
   -1.0581   -3.8928    0.0850 H   0  0  0  0  0  0  0  0  0  0  0  0
    0.4461   -3.1402   -1.2413 C   0  0  0  0  0  0  0  0  0  0  0  0
    0.2044   -3.8138   -2.0677 H   0  0  0  0  0  0  0  0  0  0  0  0
    0.7428   -2.1748   -1.6700 H   0  0  0  0  0  0  0  0  0  0  0  0
    1.5493   -3.7348   -0.3585 C   0  0  1  0  0  0  0  0  0  0  0  0
    1.2684   -4.7834   -0.1721 H   0  0  0  0  0  0  0  0  0  0  0  0
    4.1076   -5.2902   -2.5569 C   0  0  0  0  0  0  0  0  0  0  0  0
    4.1813   -4.5451   -3.3513 H   0  0  0  0  0  0  0  0  0  0  0  0
    4.6253   -6.5605   -2.8131 C   0  0  0  0  0  0  0  0  0  0  0  0
    5.0503   -6.7893   -3.7866 H   0  0  0  0  0  0  0  0  0  0  0  0
  1  2  1  0  0  0  0
  2  3  2  0  0  0  0
  2 63  1  0  0  0  0
  3  4  1  0  0  0  0
  3  5  1  0  0  0  0
  5  6  1  0  0  0  0
  5  7  2  0  0  0  0
  7 61  1  0  0  0  0
  7  8  1  0  0  0  0
  8 10  1  0  0  0  0
  8 59  1  0  0  0  0
  8  9  1  6  0  0  0
 10 12  1  0  0  0  0
 10 11  1  0  0  0  0
 12 13  2  0  0  0  0
 12 21  1  0  0  0  0
 13 15  1  0  0  0  0
 13 14  1  0  0  0  0
 15 17  2  0  0  0  0
 15 16  1  0  0  0  0
 17 19  1  0  0  0  0
 17 18  1  0  0  0  0
 19 21  2  0  0  0  0
 19 20  1  0  0  0  0
 21 22  1  0  0  0  0
 22 24  1  0  0  0  0
 22 59  1  0  0  0  0
 22 23  1  1  0  0  0
 24 25  1  0  0  0  0
 25 53  1  0  0  0  0
 25 26  1  1  0  0  0
 25 27  1  0  0  0  0
 27 28  1  0  0  0  0
 27 29  1  0  0  0  0
 27 30  1  0  0  0  0
 30 31  1  0  0  0  0
 30 32  1  0  0  0  0
 32 33  2  0  0  0  0
 32 34  1  0  0  0  0
 34 35  1  0  0  0  0
 34 36  1  0  0  0  0
 34 37  1  0  0  0  0
 37 38  1  0  0  0  0
 37 39  1  0  0  0  0
 37 40  1  0  0  0  0
 40 41  1  0  0  0  0
 40 42  1  0  0  0  0
 40 43  1  0  0  0  0
 43 44  1  0  0  0  0
 43 45  1  0  0  0  0
 43 49  1  0  0  0  0
 45 46  1  0  0  0  0
 45 47  1  0  0  0  0
 45 48  1  0  0  0  0
 49 50  1  0  0  0  0
 49 51  1  0  0  0  0
 49 52  1  0  0  0  0
 53 56  1  0  0  0  0
 53 54  1  0  0  0  0
 53 55  1  0  0  0  0
 56 59  1  0  0  0  0
 56 57  1  0  0  0  0
 56 58  1  0  0  0  0
 59 60  1  1  0  0  0
 61 62  1  0  0  0  0
 61 63  2  0  0  0  0
 63 64  1  0  0  0  0
M  CHG  1  43   1
M  END
$$$$
