lig_18628-1
 OpenBabel01042521503D

 41 42  0  0  0  0  0  0  0  0999 V2000
    9.1621   -0.4653    1.8213 C   0  0  0  0  0  0  0  0  0  0  0  0
    8.5315    0.2419    0.6357 C   0  0  0  0  0  0  0  0  0  0  0  0
    7.1817    0.5677    0.9947 O   0  0  0  0  0  0  0  0  0  0  0  0
    6.3812    0.7747   -0.1089 C   0  0  0  0  0  0  0  0  0  0  0  0
    5.0131    0.5665    0.0028 C   0  0  0  0  0  0  0  0  0  0  0  0
    4.2301    0.7059   -1.1548 C   0  0  0  0  0  0  0  0  0  0  0  0
    4.8493    1.1914   -2.3127 C   0  0  0  0  0  0  0  0  0  0  0  0
    6.2172    1.4415   -2.3108 C   0  0  0  0  0  0  0  0  0  0  0  0
    6.9773    1.2030   -1.2378 N   0  0  0  0  0  0  0  0  0  0  0  0
    6.7898    1.9815   -3.4681 N   0  0  0  0  0  0  0  0  0  0  0  0
    8.1214    2.3345   -3.6005 C   0  0  0  0  0  0  0  0  0  0  0  0
    8.9876    2.2289   -2.7357 O   0  0  0  0  0  0  0  0  0  0  0  0
    8.5286    2.8958   -4.9611 C   0  0  0  0  0  0  0  0  0  0  0  0
    7.4441    2.9883   -6.0095 C   0  0  0  0  0  0  0  0  0  0  0  0
    6.6686    4.1804   -6.0082 C   0  0  0  0  0  0  0  0  0  0  0  0
    5.6381    4.3955   -6.9279 C   0  0  0  0  0  0  0  0  0  0  0  0
    5.3860    3.4027   -7.8768 C   0  0  0  0  0  0  0  0  0  0  0  0
    6.1313    2.2219   -7.8836 C   0  0  0  0  0  0  0  0  0  0  0  0
    7.1487    1.9898   -6.9482 C   0  0  0  0  0  0  0  0  0  0  0  0
    7.9016    0.6894   -7.0301 C   0  0  0  0  0  0  0  0  0  0  0  0
    2.8261    0.6059   -1.1394 N   0  0  0  0  0  0  0  0  0  0  0  0
    4.4371    0.2000    1.2558 C   0  0  0  0  0  0  0  0  0  0  0  0
    3.9196   -0.1142    2.2489 N   0  0  0  0  0  0  0  0  0  0  0  0
   10.1412   -0.8746    1.5569 H   0  0  0  0  0  0  0  0  0  0  0  0
    8.5179   -1.2813    2.1661 H   0  0  0  0  0  0  0  0  0  0  0  0
    9.2843    0.2243    2.6624 H   0  0  0  0  0  0  0  0  0  0  0  0
    8.5593   -0.4429   -0.2216 H   0  0  0  0  0  0  0  0  0  0  0  0
    9.0944    1.1528    0.3980 H   0  0  0  0  0  0  0  0  0  0  0  0
    4.2541    1.3875   -3.1993 H   0  0  0  0  0  0  0  0  0  0  0  0
    6.1632    2.1303   -4.2460 H   0  0  0  0  0  0  0  0  0  0  0  0
    9.3751    2.3164   -5.3381 H   0  0  0  0  0  0  0  0  0  0  0  0
    8.9369    3.8991   -4.7781 H   0  0  0  0  0  0  0  0  0  0  0  0
    6.9028    4.9413   -5.2657 H   0  0  0  0  0  0  0  0  0  0  0  0
    5.0482    5.3085   -6.9274 H   0  0  0  0  0  0  0  0  0  0  0  0
    4.6073    3.5434   -8.6221 H   0  0  0  0  0  0  0  0  0  0  0  0
    5.9228    1.4584   -8.6314 H   0  0  0  0  0  0  0  0  0  0  0  0
    7.3729   -0.0310   -7.6683 H   0  0  0  0  0  0  0  0  0  0  0  0
    7.9942    0.2266   -6.0447 H   0  0  0  0  0  0  0  0  0  0  0  0
    8.8950    0.8500   -7.4600 H   0  0  0  0  0  0  0  0  0  0  0  0
    2.4339    0.0043   -0.4158 H   0  0  0  0  0  0  0  0  0  0  0  0
    2.3900    0.4367   -2.0424 H   0  0  0  0  0  0  0  0  0  0  0  0
  1  2  1  0  0  0  0
  1 24  1  0  0  0  0
  1 25  1  0  0  0  0
  1 26  1  0  0  0  0
  2  3  1  0  0  0  0
  2 27  1  0  0  0  0
  2 28  1  0  0  0  0
  3  4  1  0  0  0  0
  4  5  1  0  0  0  0
  4  9  2  0  0  0  0
  5  6  2  0  0  0  0
  5 22  1  0  0  0  0
  6  7  1  0  0  0  0
  6 21  1  0  0  0  0
  7  8  2  0  0  0  0
  7 29  1  0  0  0  0
  8  9  1  0  0  0  0
  8 10  1  0  0  0  0
 10 11  1  0  0  0  0
 10 30  1  0  0  0  0
 11 12  2  0  0  0  0
 11 13  1  0  0  0  0
 13 14  1  0  0  0  0
 13 31  1  0  0  0  0
 13 32  1  0  0  0  0
 14 15  1  0  0  0  0
 14 19  2  0  0  0  0
 15 16  2  0  0  0  0
 15 33  1  0  0  0  0
 16 17  1  0  0  0  0
 16 34  1  0  0  0  0
 17 18  2  0  0  0  0
 17 35  1  0  0  0  0
 18 19  1  0  0  0  0
 18 36  1  0  0  0  0
 19 20  1  0  0  0  0
 20 37  1  0  0  0  0
 20 38  1  0  0  0  0
 20 39  1  0  0  0  0
 21 40  1  0  0  0  0
 21 41  1  0  0  0  0
 22 23  3  0  0  0  0
M  END
$$$$
