R1_1
     RDKit          3D

 38 40  0  0  0  0  0  0  0  0999 V2000
   15.8404  -10.7487    0.8512 C   0  0  0  0  0  0  0  0  0  0  0  0
   15.0296  -12.4339   -0.6434 C   0  0  0  0  0  0  0  0  0  0  0  0
   15.2561  -12.0079    0.6686 C   0  0  0  0  0  0  0  0  0  0  0  0
   15.3748  -11.6299   -1.7270 C   0  0  0  0  0  0  0  0  0  0  0  0
   16.2000   -9.9166   -0.2111 C   0  0  0  0  0  0  0  0  0  0  0  0
   15.9585  -10.3732   -1.5248 C   0  0  0  0  0  0  0  0  0  0  0  0
   16.7656   -8.7137    0.3418 C   0  0  0  0  0  0  0  0  0  0  0  0
   16.7192   -8.8642    1.7159 C   0  0  0  0  0  0  0  0  0  0  0  0
   16.1722  -10.0835    2.0036 N   0  0  0  0  0  0  0  0  0  0  0  0
   17.1636   -7.9104    2.8698 C   0  0  0  0  0  0  0  0  0  0  0  0
   17.6498   -6.7856    2.5610 O   0  5  0  0  0  0  0  0  0  0  0  0
   16.9751   -8.3836    4.0325 O   0  0  0  0  0  0  0  0  0  0  0  0
   17.2846   -7.5409   -0.4333 C   0  0  0  0  0  0  0  0  0  0  0  0
   16.2456   -6.4243   -0.5511 C   0  0  0  0  0  0  0  0  0  0  0  0
   16.6147   -5.3815   -1.6045 C   0  0  0  0  0  0  0  0  0  0  0  0
   17.9592   -4.9039   -1.4760 O   0  0  0  0  0  0  0  0  0  0  0  0
   14.5780  -13.4069   -0.8166 H   0  0  0  0  0  0  0  0  0  0  0  0
   14.9893  -12.6298    1.5158 H   0  0  0  0  0  0  0  0  0  0  0  0
   15.1920  -11.9776   -2.7396 H   0  0  0  0  0  0  0  0  0  0  0  0
   16.2256   -9.7522   -2.3734 H   0  0  0  0  0  0  0  0  0  0  0  0
   16.0457  -10.3996    2.9565 H   0  0  0  0  0  0  0  0  0  0  0  0
   17.5724   -7.8785   -1.4368 H   0  0  0  0  0  0  0  0  0  0  0  0
   18.2044   -7.1637    0.0277 H   0  0  0  0  0  0  0  0  0  0  0  0
   16.1261   -5.9381    0.4235 H   0  0  0  0  0  0  0  0  0  0  0  0
   15.2632   -6.8403   -0.8083 H   0  0  0  0  0  0  0  0  0  0  0  0
   16.5495   -5.8452   -2.5961 H   0  0  0  0  0  0  0  0  0  0  0  0
   15.8822   -4.5627   -1.6032 H   0  0  0  0  0  0  0  0  0  0  0  0
   18.1770   -1.3469    0.6489 C   0  0  0  0  0  0  0  0  0  0  0  0
   17.9890   -2.5222   -1.4548 C   0  0  0  0  0  0  0  0  0  0  0  0
   18.0683   -1.3245   -0.7429 C   0  0  0  0  0  0  0  0  0  0  0  0
   18.0046   -3.7351   -0.7678 C   0  0  0  0  0  0  0  0  0  0  0  0
   18.2156   -2.5661    1.3273 C   0  0  0  0  0  0  0  0  0  0  0  0
   18.1391   -3.7640    0.6170 C   0  0  0  0  0  0  0  0  0  0  0  0
   18.2386   -0.4176    1.2077 H   0  0  0  0  0  0  0  0  0  0  0  0
   17.9162   -2.5143   -2.5372 H   0  0  0  0  0  0  0  0  0  0  0  0
   18.0498   -0.3764   -1.2716 H   0  0  0  0  0  0  0  0  0  0  0  0
   18.3070   -2.5976    2.4101 H   0  0  0  0  0  0  0  0  0  0  0  0
   18.1813   -4.7131    1.1504 H   0  0  0  0  0  0  0  0  0  0  0  0
 31 16  1  0
 30 28  2  0
 28 32  1  0
 32 33  2  0
 33 31  1  0
 31 29  2  0
 29 30  1  0
 28 34  1  0
 29 35  1  0
 30 36  1  0
 32 37  1  0
 33 38  1  0
  3  1  2  0
  1  5  1  0
  5  6  2  0
  6  4  1  0
  4  2  2  0
  2  3  1  0
  1  9  1  0
  9  8  1  0
  8  7  2  0
  7  5  1  0
  8 10  1  0
 10 11  1  0
 10 12  2  0
  7 13  1  0
 13 14  1  0
 14 15  1  0
 15 16  1  0
  2 17  1  0
  3 18  1  0
  4 19  1  0
  6 20  1  0
  9 21  1  0
 13 22  1  0
 13 23  1  0
 14 24  1  0
 14 25  1  0
 15 26  1  0
 15 27  1  0
M  CHG  1  11  -1
M  END
$$$$
