lig_23477
 OpenBabel01042522403D

 43 45  0  0  0  0  0  0  0  0999 V2000
   12.5262    1.1005   -6.8024 H   0  0  0  0  0  0  0  0  0  0  0  0
   12.5531    0.8236   -5.7526 C   0  0  0  0  0  0  0  0  0  0  0  0
   13.4303   -0.1729   -5.3239 C   0  0  0  0  0  0  0  0  0  0  0  0
   13.5128   -0.5175   -3.9683 C   0  0  0  0  0  0  0  0  0  0  0  0
   12.6738    0.1590   -3.0713 C   0  0  0  0  0  0  0  0  0  0  0  0
   11.7857    1.1614   -3.4676 C   0  0  0  0  0  0  0  0  0  0  0  0
   11.7261    1.4704   -4.8317 C   0  0  0  0  0  0  0  0  0  0  0  0
   11.0459    2.2371   -5.1910 H   0  0  0  0  0  0  0  0  0  0  0  0
   10.8938    1.7872   -2.5837 N   0  0  0  0  0  0  0  0  0  0  0  0
   10.6524    2.7068   -2.9416 H   0  0  0  0  0  0  0  0  0  0  0  0
   11.1633    1.7603   -1.1320 C   0  0  0  0  0  0  0  0  0  0  0  0
   10.6679    0.4325   -0.5502 C   0  0  0  0  0  0  0  0  0  0  0  0
   10.6483    0.4725    0.9686 C   0  0  0  0  0  0  0  0  0  0  0  0
    9.8922    1.5889    1.4335 O   0  0  0  0  0  0  0  0  0  0  0  0
    9.0787    3.0481   -0.5279 C   0  0  0  0  0  0  0  0  0  0  0  0
   10.6002    3.0235   -0.4854 C   0  0  0  0  0  0  0  0  0  0  0  0
   10.9381    3.0704    0.5582 H   0  0  0  0  0  0  0  0  0  0  0  0
   10.9951    3.9152   -0.9872 H   0  0  0  0  0  0  0  0  0  0  0  0
    8.7705    3.9492    0.0070 H   0  0  0  0  0  0  0  0  0  0  0  0
    8.7219    3.1244   -1.5602 H   0  0  0  0  0  0  0  0  0  0  0  0
   10.1739   -0.4355    1.3548 H   0  0  0  0  0  0  0  0  0  0  0  0
   11.6614    0.5164    1.3859 H   0  0  0  0  0  0  0  0  0  0  0  0
    9.6587    0.2170   -0.9203 H   0  0  0  0  0  0  0  0  0  0  0  0
   11.3149   -0.3864   -0.8903 H   0  0  0  0  0  0  0  0  0  0  0  0
   12.2460    1.7738   -0.9537 H   0  0  0  0  0  0  0  0  0  0  0  0
   12.7627   -0.0820   -2.0203 H   0  0  0  0  0  0  0  0  0  0  0  0
   14.5148   -1.4753   -3.4544 C   0  0  0  0  0  0  0  0  0  0  0  0
   14.4811   -2.3964   -2.4169 C   0  0  0  0  0  0  0  0  0  0  0  0
   15.7630   -3.0089   -2.1447 C   0  0  0  0  0  0  0  0  0  0  0  0
   16.7269   -2.5625   -3.0391 C   0  0  0  0  0  0  0  0  0  0  0  0
   16.0843   -1.4112   -4.1333 S   0  0  0  0  0  0  0  0  0  0  0  0
   18.1672   -2.9542   -3.1414 C   0  0  0  0  0  0  0  0  0  0  0  0
   18.8747   -2.3207   -3.9961 O   0  0  0  0  0  0  0  0  0  0  0  0
   18.6179   -3.8898   -2.4134 O   0  5  0  0  0  0  0  0  0  0  0  0
   16.1065   -3.7764   -1.0736 O   0  0  0  0  0  0  0  0  0  0  0  0
   15.2673   -4.9046   -0.7851 C   0  0  0  0  0  0  0  0  0  0  0  0
   14.4132   -5.0102   -1.4610 H   0  0  0  0  0  0  0  0  0  0  0  0
   15.8739   -5.8044   -0.9374 H   0  0  0  0  0  0  0  0  0  0  0  0
   14.7777   -4.8999    0.6890 C   0  0  0  0  0  0  0  0  0  0  0  0
   14.7786   -3.8090    1.3277 O   0  0  0  0  0  0  0  0  0  0  0  0
   14.3603   -6.0338    1.0998 O   0  5  0  0  0  0  0  0  0  0  0  0
   12.8696   -2.8244   -1.4746 Br  0  0  0  0  0  0  0  0  0  0  0  0
   14.0686   -0.6624   -6.0564 H   0  0  0  0  0  0  0  0  0  0  0  0
  1  2  1  0  0  0  0
  2  3  1  0  0  0  0
  2  7  2  0  0  0  0
  3  4  2  0  0  0  0
  3 43  1  0  0  0  0
  4  5  1  0  0  0  0
  4 27  1  0  0  0  0
  5  6  2  0  0  0  0
  5 26  1  0  0  0  0
  6  7  1  0  0  0  0
  6  9  1  0  0  0  0
  7  8  1  0  0  0  0
  9 10  1  0  0  0  0
  9 11  1  0  0  0  0
 11 12  1  0  0  0  0
 11 16  1  0  0  0  0
 11 25  1  0  0  0  0
 12 13  1  0  0  0  0
 12 23  1  0  0  0  0
 12 24  1  0  0  0  0
 13 14  1  0  0  0  0
 13 21  1  0  0  0  0
 13 22  1  0  0  0  0
 14 15  1  0  0  0  0
 15 16  1  0  0  0  0
 15 19  1  0  0  0  0
 15 20  1  0  0  0  0
 16 17  1  0  0  0  0
 16 18  1  0  0  0  0
 27 28  2  0  0  0  0
 27 31  1  0  0  0  0
 28 29  1  0  0  0  0
 28 42  1  0  0  0  0
 29 30  2  0  0  0  0
 29 35  1  0  0  0  0
 30 31  1  0  0  0  0
 30 32  1  0  0  0  0
 32 33  2  0  0  0  0
 32 34  1  0  0  0  0
 35 36  1  0  0  0  0
 36 37  1  0  0  0  0
 36 38  1  0  0  0  0
 36 39  1  0  0  0  0
 39 40  2  0  0  0  0
 39 41  1  0  0  0  0
M  CHG  2  34  -1  41  -1
M  END
$$$$
