lig_23468
 OpenBabel01042522403D

 37 38  0  0  0  0  0  0  0  0999 V2000
   12.5262    1.1005   -6.8024 H   0  0  0  0  0  0  0  0  0  0  0  0
   12.5531    0.8236   -5.7526 C   0  0  0  0  0  0  0  0  0  0  0  0
   13.4303   -0.1729   -5.3239 C   0  0  0  0  0  0  0  0  0  0  0  0
   13.5128   -0.5175   -3.9683 C   0  0  0  0  0  0  0  0  0  0  0  0
   12.6738    0.1590   -3.0713 C   0  0  0  0  0  0  0  0  0  0  0  0
   11.7857    1.1614   -3.4676 C   0  0  0  0  0  0  0  0  0  0  0  0
   11.7261    1.4704   -4.8317 C   0  0  0  0  0  0  0  0  0  0  0  0
   11.0459    2.2371   -5.1910 H   0  0  0  0  0  0  0  0  0  0  0  0
   10.8938    1.7872   -2.5837 N   0  0  0  0  0  0  0  0  0  0  0  0
   10.6524    2.7068   -2.9416 H   0  0  0  0  0  0  0  0  0  0  0  0
   10.2787    1.3869   -1.4077 C   0  0  0  0  0  0  0  0  0  0  0  0
   10.3769    0.2989   -0.8563 O   0  0  0  0  0  0  0  0  0  0  0  0
    9.4004    2.4822   -0.8292 C   0  0  0  0  0  0  0  0  0  0  0  0
   10.0108    3.3769   -0.6704 H   0  0  0  0  0  0  0  0  0  0  0  0
    8.6153    2.7173   -1.5572 H   0  0  0  0  0  0  0  0  0  0  0  0
    8.7650    2.0589    0.4850 C   0  0  0  0  0  0  0  0  0  0  0  0
    8.1476    1.1630    0.3531 H   0  0  0  0  0  0  0  0  0  0  0  0
    9.5309    1.8260    1.2331 H   0  0  0  0  0  0  0  0  0  0  0  0
    8.1296    2.8562    0.8810 H   0  0  0  0  0  0  0  0  0  0  0  0
   12.7627   -0.0820   -2.0203 H   0  0  0  0  0  0  0  0  0  0  0  0
   14.5148   -1.4753   -3.4544 C   0  0  0  0  0  0  0  0  0  0  0  0
   14.4811   -2.3964   -2.4169 C   0  0  0  0  0  0  0  0  0  0  0  0
   15.7630   -3.0089   -2.1447 C   0  0  0  0  0  0  0  0  0  0  0  0
   16.7269   -2.5625   -3.0391 C   0  0  0  0  0  0  0  0  0  0  0  0
   16.0843   -1.4112   -4.1333 S   0  0  0  0  0  0  0  0  0  0  0  0
   18.1672   -2.9542   -3.1414 C   0  0  0  0  0  0  0  0  0  0  0  0
   18.8747   -2.3207   -3.9961 O   0  0  0  0  0  0  0  0  0  0  0  0
   18.6179   -3.8898   -2.4134 O   0  5  0  0  0  0  0  0  0  0  0  0
   16.1065   -3.7764   -1.0736 O   0  0  0  0  0  0  0  0  0  0  0  0
   15.2673   -4.9046   -0.7851 C   0  0  0  0  0  0  0  0  0  0  0  0
   14.4132   -5.0102   -1.4610 H   0  0  0  0  0  0  0  0  0  0  0  0
   15.8739   -5.8044   -0.9374 H   0  0  0  0  0  0  0  0  0  0  0  0
   14.7777   -4.8999    0.6890 C   0  0  0  0  0  0  0  0  0  0  0  0
   14.7786   -3.8090    1.3277 O   0  0  0  0  0  0  0  0  0  0  0  0
   14.3603   -6.0338    1.0998 O   0  5  0  0  0  0  0  0  0  0  0  0
   12.8870   -2.8370   -1.4596 Br  0  0  0  0  0  0  0  0  0  0  0  0
   14.0686   -0.6624   -6.0564 H   0  0  0  0  0  0  0  0  0  0  0  0
  1  2  1  0  0  0  0
  2  3  1  0  0  0  0
  2  7  2  0  0  0  0
  3  4  2  0  0  0  0
  3 37  1  0  0  0  0
  4  5  1  0  0  0  0
  4 21  1  0  0  0  0
  5  6  2  0  0  0  0
  5 20  1  0  0  0  0
  6  7  1  0  0  0  0
  6  9  1  0  0  0  0
  7  8  1  0  0  0  0
  9 10  1  0  0  0  0
  9 11  1  0  0  0  0
 11 12  2  0  0  0  0
 11 13  1  0  0  0  0
 13 14  1  0  0  0  0
 13 15  1  0  0  0  0
 13 16  1  0  0  0  0
 16 17  1  0  0  0  0
 16 18  1  0  0  0  0
 16 19  1  0  0  0  0
 21 22  2  0  0  0  0
 21 25  1  0  0  0  0
 22 23  1  0  0  0  0
 22 36  1  0  0  0  0
 23 24  2  0  0  0  0
 23 29  1  0  0  0  0
 24 25  1  0  0  0  0
 24 26  1  0  0  0  0
 26 27  2  0  0  0  0
 26 28  1  0  0  0  0
 29 30  1  0  0  0  0
 30 31  1  0  0  0  0
 30 32  1  0  0  0  0
 30 33  1  0  0  0  0
 33 34  2  0  0  0  0
 33 35  1  0  0  0  0
M  CHG  2  28  -1  35  -1
M  END
$$$$
