lig_20667_2qbp
 OpenBabel01042522403D

 60 63  0  0  0  0  0  0  0  0999 V2000
    1.1585    4.0927    1.9914 H   0  0  0  0  0  0  0  0  0  0  0  0
    2.2175    3.9116    1.8300 C   0  0  0  0  0  0  0  0  0  0  0  0
    2.9359    3.1271    2.7307 C   0  0  0  0  0  0  0  0  0  0  0  0
    4.2973    2.8960    2.5288 C   0  0  0  0  0  0  0  0  0  0  0  0
    4.9551    3.4563    1.4263 C   0  0  0  0  0  0  0  0  0  0  0  0
    4.2167    4.2240    0.5124 C   0  0  0  0  0  0  0  0  0  0  0  0
    2.8556    4.4530    0.7164 C   0  0  0  0  0  0  0  0  0  0  0  0
    2.2942    5.0527    0.0048 H   0  0  0  0  0  0  0  0  0  0  0  0
    4.6974    4.6486   -0.3674 H   0  0  0  0  0  0  0  0  0  0  0  0
    6.4392    3.2667    1.2427 C   0  0  0  0  0  0  0  0  0  0  0  0
    6.8494    4.1587    0.7640 H   0  0  0  0  0  0  0  0  0  0  0  0
    6.9435    3.1088    2.2001 H   0  0  0  0  0  0  0  0  0  0  0  0
    6.7610    1.8455    0.1932 S   0  0  0  0  0  0  0  0  0  0  0  0
    6.3502    0.6463    0.8946 O   0  0  0  0  0  0  0  0  0  0  0  0
    6.2947    2.1284   -1.1497 O   0  0  0  0  0  0  0  0  0  0  0  0
    8.4935    1.8470    0.1357 N   0  0  0  0  0  0  0  0  0  0  0  0
    9.0161    0.5809   -0.4846 C   0  0  0  0  0  0  0  0  0  0  0  0
   10.5368    0.5456   -0.4423 C   0  0  0  0  0  0  0  0  0  0  0  0
   11.1633    1.7603   -1.1320 C   0  0  0  0  0  0  0  0  0  0  0  0
   10.6002    3.0235   -0.4854 C   0  0  0  0  0  0  0  0  0  0  0  0
    9.0787    3.0481   -0.5279 C   0  0  0  0  0  0  0  0  0  0  0  0
    8.7705    3.9492    0.0070 H   0  0  0  0  0  0  0  0  0  0  0  0
    8.7219    3.1244   -1.5602 H   0  0  0  0  0  0  0  0  0  0  0  0
   10.9381    3.0704    0.5582 H   0  0  0  0  0  0  0  0  0  0  0  0
   10.9951    3.9152   -0.9872 H   0  0  0  0  0  0  0  0  0  0  0  0
   12.2460    1.7738   -0.9537 H   0  0  0  0  0  0  0  0  0  0  0  0
   10.8938    1.7872   -2.5837 N   0  0  0  0  0  0  0  0  0  0  0  0
   10.6524    2.7068   -2.9416 H   0  0  0  0  0  0  0  0  0  0  0  0
   11.7857    1.1614   -3.4676 C   0  0  0  0  0  0  0  0  0  0  0  0
   11.7261    1.4704   -4.8317 C   0  0  0  0  0  0  0  0  0  0  0  0
   12.5531    0.8236   -5.7526 C   0  0  0  0  0  0  0  0  0  0  0  0
   13.4303   -0.1729   -5.3239 C   0  0  0  0  0  0  0  0  0  0  0  0
   13.5128   -0.5175   -3.9683 C   0  0  0  0  0  0  0  0  0  0  0  0
   12.6738    0.1590   -3.0713 C   0  0  0  0  0  0  0  0  0  0  0  0
   12.7627   -0.0820   -2.0203 H   0  0  0  0  0  0  0  0  0  0  0  0
   14.5148   -1.4753   -3.4544 C   0  0  0  0  0  0  0  0  0  0  0  0
   14.4811   -2.3964   -2.4169 C   0  0  0  0  0  0  0  0  0  0  0  0
   15.7630   -3.0089   -2.1447 C   0  0  0  0  0  0  0  0  0  0  0  0
   16.7269   -2.5625   -3.0391 C   0  0  0  0  0  0  0  0  0  0  0  0
   16.0843   -1.4112   -4.1333 S   0  0  0  0  0  0  0  0  0  0  0  0
   18.1672   -2.9542   -3.1414 C   0  0  0  0  0  0  0  0  0  0  0  0
   18.8747   -2.3207   -3.9961 O   0  0  0  0  0  0  0  0  0  0  0  0
   18.6179   -3.8898   -2.4134 O   0  5  0  0  0  0  0  0  0  0  0  0
   16.1065   -3.7764   -1.0736 O   0  0  0  0  0  0  0  0  0  0  0  0
   15.2673   -4.9046   -0.7851 C   0  0  0  0  0  0  0  0  0  0  0  0
   14.4132   -5.0102   -1.4610 H   0  0  0  0  0  0  0  0  0  0  0  0
   15.8739   -5.8044   -0.9374 H   0  0  0  0  0  0  0  0  0  0  0  0
   14.7777   -4.8999    0.6890 C   0  0  0  0  0  0  0  0  0  0  0  0
   14.7786   -3.8090    1.3277 O   0  0  0  0  0  0  0  0  0  0  0  0
   14.3603   -6.0338    1.0998 O   0  5  0  0  0  0  0  0  0  0  0  0
   12.8985   -2.7652   -1.4063 Br  0  0  0  0  0  0  0  0  0  0  0  0
   14.0686   -0.6624   -6.0564 H   0  0  0  0  0  0  0  0  0  0  0  0
   12.5262    1.1005   -6.8024 H   0  0  0  0  0  0  0  0  0  0  0  0
   11.0459    2.2371   -5.1910 H   0  0  0  0  0  0  0  0  0  0  0  0
   10.8761   -0.3931   -0.8869 H   0  0  0  0  0  0  0  0  0  0  0  0
   10.8652    0.5309    0.6061 H   0  0  0  0  0  0  0  0  0  0  0  0
    8.6598    0.4925   -1.5170 H   0  0  0  0  0  0  0  0  0  0  0  0
    8.6434   -0.2804    0.0813 H   0  0  0  0  0  0  0  0  0  0  0  0
    4.8418    2.2745    3.2377 H   0  0  0  0  0  0  0  0  0  0  0  0
    2.4366    2.6919    3.5922 H   0  0  0  0  0  0  0  0  0  0  0  0
  1  2  1  0  0  0  0
  2  3  1  0  0  0  0
  2  7  2  0  0  0  0
  3  4  2  0  0  0  0
  3 60  1  0  0  0  0
  4  5  1  0  0  0  0
  4 59  1  0  0  0  0
  5  6  2  0  0  0  0
  5 10  1  0  0  0  0
  6  7  1  0  0  0  0
  6  9  1  0  0  0  0
  7  8  1  0  0  0  0
 10 11  1  0  0  0  0
 10 12  1  0  0  0  0
 10 13  1  0  0  0  0
 13 14  2  0  0  0  0
 13 15  2  0  0  0  0
 13 16  1  0  0  0  0
 16 17  1  0  0  0  0
 16 21  1  0  0  0  0
 17 18  1  0  0  0  0
 17 57  1  0  0  0  0
 17 58  1  0  0  0  0
 18 19  1  0  0  0  0
 18 55  1  0  0  0  0
 18 56  1  0  0  0  0
 19 20  1  0  0  0  0
 19 26  1  0  0  0  0
 19 27  1  0  0  0  0
 20 21  1  0  0  0  0
 20 24  1  0  0  0  0
 20 25  1  0  0  0  0
 21 22  1  0  0  0  0
 21 23  1  0  0  0  0
 27 28  1  0  0  0  0
 27 29  1  0  0  0  0
 29 30  1  0  0  0  0
 29 34  2  0  0  0  0
 30 31  2  0  0  0  0
 30 54  1  0  0  0  0
 31 32  1  0  0  0  0
 31 53  1  0  0  0  0
 32 33  2  0  0  0  0
 32 52  1  0  0  0  0
 33 34  1  0  0  0  0
 33 36  1  0  0  0  0
 34 35  1  0  0  0  0
 36 37  2  0  0  0  0
 36 40  1  0  0  0  0
 37 38  1  0  0  0  0
 37 51  1  0  0  0  0
 38 39  2  0  0  0  0
 38 44  1  0  0  0  0
 39 40  1  0  0  0  0
 39 41  1  0  0  0  0
 41 42  2  0  0  0  0
 41 43  1  0  0  0  0
 44 45  1  0  0  0  0
 45 46  1  0  0  0  0
 45 47  1  0  0  0  0
 45 48  1  0  0  0  0
 48 49  2  0  0  0  0
 48 50  1  0  0  0  0
M  CHG  2  43  -1  50  -1
M  END
$$$$
