lig_20670_2qbs
 OpenBabel01042522403D

 45 47  0  0  0  0  0  0  0  0999 V2000
   12.5262    1.1005   -6.8024 H   0  0  0  0  0  0  0  0  0  0  0  0
   12.5531    0.8236   -5.7526 C   0  0  0  0  0  0  0  0  0  0  0  0
   13.4303   -0.1729   -5.3239 C   0  0  0  0  0  0  0  0  0  0  0  0
   13.5128   -0.5175   -3.9683 C   0  0  0  0  0  0  0  0  0  0  0  0
   12.6738    0.1590   -3.0713 C   0  0  0  0  0  0  0  0  0  0  0  0
   11.7857    1.1614   -3.4676 C   0  0  0  0  0  0  0  0  0  0  0  0
   11.7261    1.4704   -4.8317 C   0  0  0  0  0  0  0  0  0  0  0  0
   11.0459    2.2371   -5.1910 H   0  0  0  0  0  0  0  0  0  0  0  0
   10.8938    1.7872   -2.5837 N   0  0  0  0  0  0  0  0  0  0  0  0
   10.6524    2.7068   -2.9416 H   0  0  0  0  0  0  0  0  0  0  0  0
   11.1633    1.7603   -1.1320 C   0  0  0  0  0  0  0  0  0  0  0  0
   10.6619    0.4246   -0.5593 C   0  0  0  0  0  0  0  0  0  0  0  0
   10.6887    0.4027    0.9661 C   0  0  0  0  0  0  0  0  0  0  0  0
    9.9186    1.5821    1.5468 C   0  0  0  0  0  0  0  0  0  0  0  0
    9.0787    3.0481   -0.5279 C   0  0  0  0  0  0  0  0  0  0  0  0
   10.6002    3.0235   -0.4854 C   0  0  0  0  0  0  0  0  0  0  0  0
   10.9381    3.0704    0.5582 H   0  0  0  0  0  0  0  0  0  0  0  0
   10.9951    3.9152   -0.9872 H   0  0  0  0  0  0  0  0  0  0  0  0
    8.7705    3.9492    0.0070 H   0  0  0  0  0  0  0  0  0  0  0  0
    8.7219    3.1244   -1.5602 H   0  0  0  0  0  0  0  0  0  0  0  0
    8.8618    1.5080    1.2611 H   0  0  0  0  0  0  0  0  0  0  0  0
    9.9594    1.5507    2.6408 H   0  0  0  0  0  0  0  0  0  0  0  0
   10.2572   -0.5370    1.3277 H   0  0  0  0  0  0  0  0  0  0  0  0
   11.7278    0.4342    1.3173 H   0  0  0  0  0  0  0  0  0  0  0  0
    9.6415    0.2211   -0.9059 H   0  0  0  0  0  0  0  0  0  0  0  0
   11.2867   -0.3918   -0.9429 H   0  0  0  0  0  0  0  0  0  0  0  0
   12.2460    1.7738   -0.9537 H   0  0  0  0  0  0  0  0  0  0  0  0
   12.7627   -0.0820   -2.0203 H   0  0  0  0  0  0  0  0  0  0  0  0
   14.5148   -1.4753   -3.4544 C   0  0  0  0  0  0  0  0  0  0  0  0
   14.4811   -2.3964   -2.4169 C   0  0  0  0  0  0  0  0  0  0  0  0
   15.7630   -3.0089   -2.1447 C   0  0  0  0  0  0  0  0  0  0  0  0
   16.7269   -2.5625   -3.0391 C   0  0  0  0  0  0  0  0  0  0  0  0
   16.0843   -1.4112   -4.1333 S   0  0  0  0  0  0  0  0  0  0  0  0
   18.1672   -2.9542   -3.1414 C   0  0  0  0  0  0  0  0  0  0  0  0
   18.8747   -2.3207   -3.9961 O   0  0  0  0  0  0  0  0  0  0  0  0
   18.6179   -3.8898   -2.4134 O   0  5  0  0  0  0  0  0  0  0  0  0
   16.1065   -3.7764   -1.0736 O   0  0  0  0  0  0  0  0  0  0  0  0
   15.2673   -4.9046   -0.7851 C   0  0  0  0  0  0  0  0  0  0  0  0
   14.4132   -5.0102   -1.4610 H   0  0  0  0  0  0  0  0  0  0  0  0
   15.8739   -5.8044   -0.9374 H   0  0  0  0  0  0  0  0  0  0  0  0
   14.7777   -4.8999    0.6890 C   0  0  0  0  0  0  0  0  0  0  0  0
   14.7786   -3.8090    1.3277 O   0  0  0  0  0  0  0  0  0  0  0  0
   14.3603   -6.0338    1.0998 O   0  5  0  0  0  0  0  0  0  0  0  0
   12.8772   -2.8289   -1.4695 Br  0  0  0  0  0  0  0  0  0  0  0  0
   14.0686   -0.6624   -6.0564 H   0  0  0  0  0  0  0  0  0  0  0  0
  1  2  1  0  0  0  0
  2  3  1  0  0  0  0
  2  7  2  0  0  0  0
  3  4  2  0  0  0  0
  3 45  1  0  0  0  0
  4  5  1  0  0  0  0
  4 29  1  0  0  0  0
  5  6  2  0  0  0  0
  5 28  1  0  0  0  0
  6  7  1  0  0  0  0
  6  9  1  0  0  0  0
  7  8  1  0  0  0  0
  9 10  1  0  0  0  0
  9 11  1  0  0  0  0
 11 12  1  0  0  0  0
 11 16  1  0  0  0  0
 11 27  1  0  0  0  0
 12 13  1  0  0  0  0
 12 25  1  0  0  0  0
 12 26  1  0  0  0  0
 13 14  1  0  0  0  0
 13 23  1  0  0  0  0
 13 24  1  0  0  0  0
 14 15  1  0  0  0  0
 14 21  1  0  0  0  0
 14 22  1  0  0  0  0
 15 16  1  0  0  0  0
 15 19  1  0  0  0  0
 15 20  1  0  0  0  0
 16 17  1  0  0  0  0
 16 18  1  0  0  0  0
 29 30  2  0  0  0  0
 29 33  1  0  0  0  0
 30 31  1  0  0  0  0
 30 44  1  0  0  0  0
 31 32  2  0  0  0  0
 31 37  1  0  0  0  0
 32 33  1  0  0  0  0
 32 34  1  0  0  0  0
 34 35  2  0  0  0  0
 34 36  1  0  0  0  0
 37 38  1  0  0  0  0
 38 39  1  0  0  0  0
 38 40  1  0  0  0  0
 38 41  1  0  0  0  0
 41 42  2  0  0  0  0
 41 43  1  0  0  0  0
M  CHG  2  36  -1  43  -1
M  END
$$$$
