lig_23330_2qbq
 OpenBabel01042522403D

 57 59  0  0  0  0  0  0  0  0999 V2000
   12.5262    1.1005   -6.8024 H   0  0  0  0  0  0  0  0  0  0  0  0
   12.5531    0.8236   -5.7526 C   0  0  0  0  0  0  0  0  0  0  0  0
   13.4303   -0.1729   -5.3239 C   0  0  0  0  0  0  0  0  0  0  0  0
   13.5128   -0.5175   -3.9683 C   0  0  0  0  0  0  0  0  0  0  0  0
   12.6738    0.1590   -3.0713 C   0  0  0  0  0  0  0  0  0  0  0  0
   11.7857    1.1614   -3.4676 C   0  0  0  0  0  0  0  0  0  0  0  0
   11.7261    1.4704   -4.8317 C   0  0  0  0  0  0  0  0  0  0  0  0
   11.0459    2.2371   -5.1910 H   0  0  0  0  0  0  0  0  0  0  0  0
   10.8938    1.7872   -2.5837 N   0  0  0  0  0  0  0  0  0  0  0  0
   10.6524    2.7068   -2.9416 H   0  0  0  0  0  0  0  0  0  0  0  0
   10.7751    1.6525   -1.1350 C   0  0  0  0  0  0  0  0  0  0  0  0
    9.2961    1.6117   -0.7372 C   0  0  0  0  0  0  0  0  0  0  0  0
    8.5012    2.9036   -1.0255 C   0  0  0  0  0  0  0  0  0  0  0  0
    9.3010    4.2166   -0.7544 C   0  0  0  0  0  0  0  0  0  0  0  0
   10.8522    4.1972   -0.5682 C   0  0  0  0  0  0  0  0  0  0  0  0
   11.4532    2.7881   -0.3616 C   0  0  0  0  0  0  0  0  0  0  0  0
   11.3767    2.5341    0.7068 H   0  0  0  0  0  0  0  0  0  0  0  0
   12.5293    2.7997   -0.5787 H   0  0  0  0  0  0  0  0  0  0  0  0
   11.5806    4.9089   -1.7344 C   0  0  0  0  0  0  0  0  0  0  0  0
   11.0561    5.8188   -2.0440 H   0  0  0  0  0  0  0  0  0  0  0  0
   12.5923    5.2104   -1.4327 H   0  0  0  0  0  0  0  0  0  0  0  0
   11.7043    4.2822   -2.6171 H   0  0  0  0  0  0  0  0  0  0  0  0
   11.1782    5.0598    0.6870 C   0  0  0  0  0  0  0  0  0  0  0  0
   10.6707    4.6768    1.5799 H   0  0  0  0  0  0  0  0  0  0  0  0
   12.2535    5.0711    0.9004 H   0  0  0  0  0  0  0  0  0  0  0  0
   10.8572    6.0977    0.5428 H   0  0  0  0  0  0  0  0  0  0  0  0
    9.0394    4.9615   -1.5181 H   0  0  0  0  0  0  0  0  0  0  0  0
    8.8804    4.6529    0.1629 H   0  0  0  0  0  0  0  0  0  0  0  0
    7.9257    2.8709   -2.4637 C   0  0  0  0  0  0  0  0  0  0  0  0
    7.1159    2.1343   -2.5403 H   0  0  0  0  0  0  0  0  0  0  0  0
    7.5044    3.8410   -2.7493 H   0  0  0  0  0  0  0  0  0  0  0  0
    8.6542    2.5986   -3.2259 H   0  0  0  0  0  0  0  0  0  0  0  0
    7.2540    2.9101   -0.0993 C   0  0  0  0  0  0  0  0  0  0  0  0
    7.5402    2.9710    0.9567 H   0  0  0  0  0  0  0  0  0  0  0  0
    6.6068    3.7674   -0.3206 H   0  0  0  0  0  0  0  0  0  0  0  0
    6.6564    1.9998   -0.2256 H   0  0  0  0  0  0  0  0  0  0  0  0
    8.8104    0.7563   -1.2262 H   0  0  0  0  0  0  0  0  0  0  0  0
    9.2533    1.3981    0.3404 H   0  0  0  0  0  0  0  0  0  0  0  0
   11.2112    0.7087   -0.7941 H   0  0  0  0  0  0  0  0  0  0  0  0
   12.7627   -0.0820   -2.0203 H   0  0  0  0  0  0  0  0  0  0  0  0
   14.5148   -1.4753   -3.4544 C   0  0  0  0  0  0  0  0  0  0  0  0
   14.4811   -2.3964   -2.4169 C   0  0  0  0  0  0  0  0  0  0  0  0
   15.7630   -3.0089   -2.1447 C   0  0  0  0  0  0  0  0  0  0  0  0
   16.7269   -2.5625   -3.0391 C   0  0  0  0  0  0  0  0  0  0  0  0
   16.0843   -1.4112   -4.1333 S   0  0  0  0  0  0  0  0  0  0  0  0
   18.1672   -2.9542   -3.1414 C   0  0  0  0  0  0  0  0  0  0  0  0
   18.8747   -2.3207   -3.9961 O   0  0  0  0  0  0  0  0  0  0  0  0
   18.6179   -3.8898   -2.4134 O   0  5  0  0  0  0  0  0  0  0  0  0
   16.1065   -3.7764   -1.0736 O   0  0  0  0  0  0  0  0  0  0  0  0
   15.2673   -4.9046   -0.7851 C   0  0  0  0  0  0  0  0  0  0  0  0
   14.4132   -5.0102   -1.4610 H   0  0  0  0  0  0  0  0  0  0  0  0
   15.8739   -5.8044   -0.9374 H   0  0  0  0  0  0  0  0  0  0  0  0
   14.7777   -4.8999    0.6890 C   0  0  0  0  0  0  0  0  0  0  0  0
   14.7786   -3.8090    1.3277 O   0  0  0  0  0  0  0  0  0  0  0  0
   14.3603   -6.0338    1.0998 O   0  5  0  0  0  0  0  0  0  0  0  0
   12.9145   -2.7681   -1.3959 Br  0  0  0  0  0  0  0  0  0  0  0  0
   14.0686   -0.6624   -6.0564 H   0  0  0  0  0  0  0  0  0  0  0  0
  1  2  1  0  0  0  0
  2  3  1  0  0  0  0
  2  7  2  0  0  0  0
  3  4  2  0  0  0  0
  3 57  1  0  0  0  0
  4  5  1  0  0  0  0
  4 41  1  0  0  0  0
  5  6  2  0  0  0  0
  5 40  1  0  0  0  0
  6  7  1  0  0  0  0
  6  9  1  0  0  0  0
  7  8  1  0  0  0  0
  9 10  1  0  0  0  0
  9 11  1  0  0  0  0
 11 12  1  0  0  0  0
 11 16  1  0  0  0  0
 11 39  1  0  0  0  0
 12 13  1  0  0  0  0
 12 37  1  0  0  0  0
 12 38  1  0  0  0  0
 13 14  1  0  0  0  0
 13 29  1  0  0  0  0
 13 33  1  0  0  0  0
 14 15  1  0  0  0  0
 14 27  1  0  0  0  0
 14 28  1  0  0  0  0
 15 16  1  0  0  0  0
 15 19  1  0  0  0  0
 15 23  1  0  0  0  0
 16 17  1  0  0  0  0
 16 18  1  0  0  0  0
 19 20  1  0  0  0  0
 19 21  1  0  0  0  0
 19 22  1  0  0  0  0
 23 24  1  0  0  0  0
 23 25  1  0  0  0  0
 23 26  1  0  0  0  0
 29 30  1  0  0  0  0
 29 31  1  0  0  0  0
 29 32  1  0  0  0  0
 33 34  1  0  0  0  0
 33 35  1  0  0  0  0
 33 36  1  0  0  0  0
 41 42  2  0  0  0  0
 41 45  1  0  0  0  0
 42 43  1  0  0  0  0
 42 56  1  0  0  0  0
 43 44  2  0  0  0  0
 43 49  1  0  0  0  0
 44 45  1  0  0  0  0
 44 46  1  0  0  0  0
 46 47  2  0  0  0  0
 46 48  1  0  0  0  0
 49 50  1  0  0  0  0
 50 51  1  0  0  0  0
 50 52  1  0  0  0  0
 50 53  1  0  0  0  0
 53 54  2  0  0  0  0
 53 55  1  0  0  0  0
M  CHG  2  48  -1  55  -1
M  END
$$$$
