lig_34
 OpenBabel01042520393D

 49 53  0  0  0  0  0  0  0  0999 V2000
    5.8131   -9.5362   -5.8211 H   0  0  0  0  0  0  0  0  0  0  0  0
    4.9539   -9.0070   -6.2122 C   0  0  0  0  0  0  0  0  0  0  0  0
    4.5491   -9.2652   -7.4567 N   0  0  0  0  0  0  0  0  0  0  0  0
    3.4672   -8.4739   -7.6079 N   0  0  0  0  0  0  0  0  0  0  0  0
    2.7358   -8.5217   -8.8460 C   0  0  0  0  0  0  0  0  0  0  0  0
    3.4350   -8.3837   -9.6732 H   0  0  0  0  0  0  0  0  0  0  0  0
    2.2447   -9.4964   -8.9166 H   0  0  0  0  0  0  0  0  0  0  0  0
    1.9859   -7.7246   -8.8550 H   0  0  0  0  0  0  0  0  0  0  0  0
    3.1841   -7.7219   -6.5034 C   0  0  0  0  0  0  0  0  0  0  0  0
    2.3473   -7.0453   -6.4858 H   0  0  0  0  0  0  0  0  0  0  0  0
    4.1403   -8.0463   -5.5618 C   0  0  0  0  0  0  0  0  0  0  0  0
    4.2181   -7.5316   -4.2043 C   0  0  0  0  0  0  0  0  0  0  0  0
    3.0618   -7.1298   -3.5362 C   0  0  0  0  0  0  0  0  0  0  0  0
    2.0906   -7.1700   -4.0218 H   0  0  0  0  0  0  0  0  0  0  0  0
    3.1314   -6.6949   -2.2139 C   0  0  0  0  0  0  0  0  0  0  0  0
    2.2194   -6.3848   -1.7060 H   0  0  0  0  0  0  0  0  0  0  0  0
    4.3623   -6.6550   -1.5440 C   0  0  0  0  0  0  0  0  0  0  0  0
    4.4430   -6.2191   -0.1030 C   0  0  0  0  0  0  0  0  0  0  0  0
    3.4927   -6.3480    0.4300 H   0  0  0  0  0  0  0  0  0  0  0  0
    5.1845   -6.8120    0.4477 H   0  0  0  0  0  0  0  0  0  0  0  0
    4.7969   -4.7682   -0.1001 C   0  0  0  0  0  0  0  0  0  0  0  0
    6.0862   -4.3892   -0.0855 N   0  0  0  0  0  0  0  0  0  0  0  0
    6.0319   -3.0551    0.0088 N   0  0  0  0  0  0  0  0  0  0  0  0
    6.9044   -2.5406    0.0373 H   0  0  0  0  0  0  0  0  0  0  0  0
    4.7652   -2.5508    0.1289 C   0  0  0  0  0  0  0  0  0  0  0  0
    3.9197   -3.6480    0.0085 C   0  0  0  0  0  0  0  0  0  0  0  0
    2.5261   -3.4397    0.0724 C   0  0  0  0  0  0  0  0  0  0  0  0
    1.8481   -4.2802   -0.0351 H   0  0  0  0  0  0  0  0  0  0  0  0
    2.0282   -2.1426    0.3140 C   0  0  0  0  0  0  0  0  0  0  0  0
    0.5554   -1.9964    0.4889 C   0  0  0  0  0  0  0  0  0  0  0  0
   -0.0566   -2.9172    1.0275 O   0  0  0  0  0  0  0  0  0  0  0  0
   -0.0699   -0.8082    0.1475 N   0  0  0  0  0  0  0  0  0  0  0  0
   -1.4718   -0.5142    0.4746 C   0  0  0  0  0  0  0  0  0  0  0  0
   -2.0844   -0.3803   -0.4217 H   0  0  0  0  0  0  0  0  0  0  0  0
   -1.9505   -1.2311    1.1473 H   0  0  0  0  0  0  0  0  0  0  0  0
   -1.0178    0.7948    1.1203 C   0  0  0  0  0  0  0  0  0  0  0  0
   -1.6188    1.9248    0.6756 F   0  0  0  0  0  0  0  0  0  0  0  0
   -1.1126    0.8232    2.4724 F   0  0  0  0  0  0  0  0  0  0  0  0
    0.3896    0.5241    0.5613 C   0  0  0  0  0  0  0  0  0  0  0  0
    1.1759    0.5188    1.3212 H   0  0  0  0  0  0  0  0  0  0  0  0
    0.6805    1.1542   -0.2829 H   0  0  0  0  0  0  0  0  0  0  0  0
    2.9306   -1.0921    0.5359 C   0  0  0  0  0  0  0  0  0  0  0  0
    2.5412   -0.1211    0.8400 H   0  0  0  0  0  0  0  0  0  0  0  0
    4.3085   -1.2557    0.3746 C   0  0  0  0  0  0  0  0  0  0  0  0
    4.9867   -0.4144    0.4761 H   0  0  0  0  0  0  0  0  0  0  0  0
    5.5208   -7.0514   -2.2301 C   0  0  0  0  0  0  0  0  0  0  0  0
    6.4886   -7.0108   -1.7344 H   0  0  0  0  0  0  0  0  0  0  0  0
    5.4577   -7.4973   -3.5589 C   0  0  0  0  0  0  0  0  0  0  0  0
    6.3807   -7.7987   -4.0493 H   0  0  0  0  0  0  0  0  0  0  0  0
  1  2  1  0  0  0  0
  2  3  2  0  0  0  0
  2 11  1  0  0  0  0
  3  4  1  0  0  0  0
  4  5  1  0  0  0  0
  4  9  1  0  0  0  0
  5  6  1  0  0  0  0
  5  7  1  0  0  0  0
  5  8  1  0  0  0  0
  9 10  1  0  0  0  0
  9 11  2  0  0  0  0
 11 12  1  0  0  0  0
 12 13  2  0  0  0  0
 12 48  1  0  0  0  0
 13 14  1  0  0  0  0
 13 15  1  0  0  0  0
 15 16  1  0  0  0  0
 15 17  2  0  0  0  0
 17 18  1  0  0  0  0
 17 46  1  0  0  0  0
 18 19  1  0  0  0  0
 18 20  1  0  0  0  0
 18 21  1  0  0  0  0
 21 22  2  0  0  0  0
 21 26  1  0  0  0  0
 22 23  1  0  0  0  0
 23 24  1  0  0  0  0
 23 25  1  0  0  0  0
 25 26  2  0  0  0  0
 25 44  1  0  0  0  0
 26 27  1  0  0  0  0
 27 28  1  0  0  0  0
 27 29  2  0  0  0  0
 29 30  1  0  0  0  0
 29 42  1  0  0  0  0
 30 31  2  0  0  0  0
 30 32  1  0  0  0  0
 32 33  1  0  0  0  0
 32 39  1  0  0  0  0
 33 34  1  0  0  0  0
 33 35  1  0  0  0  0
 33 36  1  0  0  0  0
 36 37  1  0  0  0  0
 36 38  1  0  0  0  0
 36 39  1  0  0  0  0
 39 40  1  0  0  0  0
 39 41  1  0  0  0  0
 42 43  1  0  0  0  0
 42 44  2  0  0  0  0
 44 45  1  0  0  0  0
 46 47  1  0  0  0  0
 46 48  2  0  0  0  0
 48 49  1  0  0  0  0
M  END
$$$$
