lig_37
 OpenBabel01042520393D

 52 56  0  0  0  0  0  0  0  0999 V2000
    5.7863   -9.5556   -5.8182 H   0  0  0  0  0  0  0  0  0  0  0  0
    4.9328   -9.0186   -6.2098 C   0  0  0  0  0  0  0  0  0  0  0  0
    4.5301   -9.2722   -7.4558 N   0  0  0  0  0  0  0  0  0  0  0  0
    3.4659   -8.4647   -7.6108 N   0  0  0  0  0  0  0  0  0  0  0  0
    2.7387   -8.4909   -8.8564 C   0  0  0  0  0  0  0  0  0  0  0  0
    3.4470   -8.3430   -9.6751 H   0  0  0  0  0  0  0  0  0  0  0  0
    2.2493   -9.4643   -8.9436 H   0  0  0  0  0  0  0  0  0  0  0  0
    1.9929   -7.6928   -8.8592 H   0  0  0  0  0  0  0  0  0  0  0  0
    3.1869   -7.7110   -6.5054 C   0  0  0  0  0  0  0  0  0  0  0  0
    2.3603   -7.0134   -6.4929 H   0  0  0  0  0  0  0  0  0  0  0  0
    4.1308   -8.0497   -5.5586 C   0  0  0  0  0  0  0  0  0  0  0  0
    4.2181   -7.5316   -4.2043 C   0  0  0  0  0  0  0  0  0  0  0  0
    3.0618   -7.1298   -3.5362 C   0  0  0  0  0  0  0  0  0  0  0  0
    2.0893   -7.1743   -4.0190 H   0  0  0  0  0  0  0  0  0  0  0  0
    3.1314   -6.6949   -2.2139 C   0  0  0  0  0  0  0  0  0  0  0  0
    2.2183   -6.3906   -1.7040 H   0  0  0  0  0  0  0  0  0  0  0  0
    4.3623   -6.6550   -1.5440 C   0  0  0  0  0  0  0  0  0  0  0  0
    4.4430   -6.2191   -0.1030 C   0  0  0  0  0  0  0  0  0  0  0  0
    3.4913   -6.3522    0.4255 H   0  0  0  0  0  0  0  0  0  0  0  0
    5.1865   -6.8128    0.4430 H   0  0  0  0  0  0  0  0  0  0  0  0
    4.7969   -4.7682   -0.1001 C   0  0  0  0  0  0  0  0  0  0  0  0
    6.0862   -4.3892   -0.0855 N   0  0  0  0  0  0  0  0  0  0  0  0
    6.0319   -3.0551    0.0088 N   0  0  0  0  0  0  0  0  0  0  0  0
    6.9033   -2.5384    0.0088 H   0  0  0  0  0  0  0  0  0  0  0  0
    4.7652   -2.5508    0.1289 C   0  0  0  0  0  0  0  0  0  0  0  0
    3.9197   -3.6480    0.0085 C   0  0  0  0  0  0  0  0  0  0  0  0
    2.5261   -3.4397    0.0724 C   0  0  0  0  0  0  0  0  0  0  0  0
    1.8416   -4.2623   -0.1035 H   0  0  0  0  0  0  0  0  0  0  0  0
    2.0282   -2.1426    0.3140 C   0  0  0  0  0  0  0  0  0  0  0  0
    0.5554   -1.9964    0.4889 C   0  0  0  0  0  0  0  0  0  0  0  0
   -0.0566   -2.9172    1.0275 O   0  0  0  0  0  0  0  0  0  0  0  0
   -0.0699   -0.8082    0.1475 N   0  0  0  0  0  0  0  0  0  0  0  0
   -1.4554   -0.5702    0.4857 C   0  0  0  0  0  0  0  0  0  0  0  0
   -1.4994   -0.2950    1.5460 H   0  0  0  0  0  0  0  0  0  0  0  0
   -2.0722   -1.4576    0.3220 H   0  0  0  0  0  0  0  0  0  0  0  0
   -1.8353    0.6008   -0.4002 C   0  0  0  0  0  0  0  0  0  0  0  0
   -2.1056    0.2387   -1.3999 H   0  0  0  0  0  0  0  0  0  0  0  0
   -2.6803    1.1730   -0.0074 H   0  0  0  0  0  0  0  0  0  0  0  0
   -0.5505    1.4235   -0.4874 C   0  0  0  0  0  0  0  0  0  0  0  0
   -0.4582    1.9141   -1.4634 H   0  0  0  0  0  0  0  0  0  0  0  0
   -0.5474    2.2133    0.2732 H   0  0  0  0  0  0  0  0  0  0  0  0
    0.5800    0.4364   -0.2415 C   0  0  0  0  0  0  0  0  0  0  0  0
    1.1996    0.2944   -1.1285 H   0  0  0  0  0  0  0  0  0  0  0  0
    1.2114    0.7792    0.5852 H   0  0  0  0  0  0  0  0  0  0  0  0
    2.9306   -1.0921    0.5359 C   0  0  0  0  0  0  0  0  0  0  0  0
    2.5575   -0.1096    0.8225 H   0  0  0  0  0  0  0  0  0  0  0  0
    4.3085   -1.2557    0.3746 C   0  0  0  0  0  0  0  0  0  0  0  0
    4.9833   -0.4077    0.4339 H   0  0  0  0  0  0  0  0  0  0  0  0
    5.5208   -7.0514   -2.2301 C   0  0  0  0  0  0  0  0  0  0  0  0
    6.4883   -7.0193   -1.7322 H   0  0  0  0  0  0  0  0  0  0  0  0
    5.4577   -7.4973   -3.5589 C   0  0  0  0  0  0  0  0  0  0  0  0
    6.3806   -7.8023   -4.0473 H   0  0  0  0  0  0  0  0  0  0  0  0
  1  2  1  0  0  0  0
  2  3  2  0  0  0  0
  2 11  1  0  0  0  0
  3  4  1  0  0  0  0
  4  5  1  0  0  0  0
  4  9  1  0  0  0  0
  5  6  1  0  0  0  0
  5  7  1  0  0  0  0
  5  8  1  0  0  0  0
  9 10  1  0  0  0  0
  9 11  2  0  0  0  0
 11 12  1  0  0  0  0
 12 13  2  0  0  0  0
 12 51  1  0  0  0  0
 13 14  1  0  0  0  0
 13 15  1  0  0  0  0
 15 16  1  0  0  0  0
 15 17  2  0  0  0  0
 17 18  1  0  0  0  0
 17 49  1  0  0  0  0
 18 19  1  0  0  0  0
 18 20  1  0  0  0  0
 18 21  1  0  0  0  0
 21 22  2  0  0  0  0
 21 26  1  0  0  0  0
 22 23  1  0  0  0  0
 23 24  1  0  0  0  0
 23 25  1  0  0  0  0
 25 26  2  0  0  0  0
 25 47  1  0  0  0  0
 26 27  1  0  0  0  0
 27 28  1  0  0  0  0
 27 29  2  0  0  0  0
 29 30  1  0  0  0  0
 29 45  1  0  0  0  0
 30 31  2  0  0  0  0
 30 32  1  0  0  0  0
 32 33  1  0  0  0  0
 32 42  1  0  0  0  0
 33 34  1  0  0  0  0
 33 35  1  0  0  0  0
 33 36  1  0  0  0  0
 36 37  1  0  0  0  0
 36 38  1  0  0  0  0
 36 39  1  0  0  0  0
 39 40  1  0  0  0  0
 39 41  1  0  0  0  0
 39 42  1  0  0  0  0
 42 43  1  0  0  0  0
 42 44  1  0  0  0  0
 45 46  1  0  0  0  0
 45 47  2  0  0  0  0
 47 48  1  0  0  0  0
 49 50  1  0  0  0  0
 49 51  2  0  0  0  0
 51 52  1  0  0  0  0
M  END
$$$$
