lig_27
 OpenBabel01042520393D

 53 56  0  0  0  0  0  0  0  0999 V2000
    5.7825   -9.5753   -5.8191 H   0  0  0  0  0  0  0  0  0  0  0  0
    4.9240   -9.0402   -6.2042 C   0  0  0  0  0  0  0  0  0  0  0  0
    4.5115   -9.3032   -7.4465 N   0  0  0  0  0  0  0  0  0  0  0  0
    3.4411   -8.5013   -7.5897 N   0  0  0  0  0  0  0  0  0  0  0  0
    2.7069   -8.5237   -8.8376 C   0  0  0  0  0  0  0  0  0  0  0  0
    3.4125   -8.3593   -9.6533 H   0  0  0  0  0  0  0  0  0  0  0  0
    2.2244   -9.4982   -8.9342 H   0  0  0  0  0  0  0  0  0  0  0  0
    1.9559   -7.7299   -8.8276 H   0  0  0  0  0  0  0  0  0  0  0  0
    3.1664   -7.7478   -6.4898 C   0  0  0  0  0  0  0  0  0  0  0  0
    2.3348   -7.0598   -6.4653 H   0  0  0  0  0  0  0  0  0  0  0  0
    4.1264   -8.0673   -5.5520 C   0  0  0  0  0  0  0  0  0  0  0  0
    4.2181   -7.5316   -4.2043 C   0  0  0  0  0  0  0  0  0  0  0  0
    3.0618   -7.1298   -3.5362 C   0  0  0  0  0  0  0  0  0  0  0  0
    2.0845   -7.2177   -4.0033 H   0  0  0  0  0  0  0  0  0  0  0  0
    3.1314   -6.6949   -2.2139 C   0  0  0  0  0  0  0  0  0  0  0  0
    2.2123   -6.4441   -1.6878 H   0  0  0  0  0  0  0  0  0  0  0  0
    4.3623   -6.6550   -1.5440 C   0  0  0  0  0  0  0  0  0  0  0  0
    4.4430   -6.2191   -0.1030 C   0  0  0  0  0  0  0  0  0  0  0  0
    3.4811   -6.3299    0.4139 H   0  0  0  0  0  0  0  0  0  0  0  0
    5.1780   -6.7910    0.4747 H   0  0  0  0  0  0  0  0  0  0  0  0
    4.7969   -4.7682   -0.1001 C   0  0  0  0  0  0  0  0  0  0  0  0
    6.0862   -4.3892   -0.0855 N   0  0  0  0  0  0  0  0  0  0  0  0
    6.0319   -3.0551    0.0088 N   0  0  0  0  0  0  0  0  0  0  0  0
    6.9025   -2.5346    0.0607 H   0  0  0  0  0  0  0  0  0  0  0  0
    4.7652   -2.5508    0.1289 C   0  0  0  0  0  0  0  0  0  0  0  0
    3.9197   -3.6480    0.0085 C   0  0  0  0  0  0  0  0  0  0  0  0
    2.5261   -3.4397    0.0724 C   0  0  0  0  0  0  0  0  0  0  0  0
    1.8609   -4.2866   -0.0410 H   0  0  0  0  0  0  0  0  0  0  0  0
    2.0282   -2.1426    0.3140 C   0  0  0  0  0  0  0  0  0  0  0  0
    0.6746   -1.8672    0.5415 N   0  0  0  0  0  0  0  0  0  0  0  0
    0.4873   -0.8684    0.4389 H   0  0  0  0  0  0  0  0  0  0  0  0
   -0.3903   -2.6463   -0.0944 C   0  0  0  0  0  0  0  0  0  0  0  0
   -0.6088   -2.2165   -1.0780 H   0  0  0  0  0  0  0  0  0  0  0  0
   -0.1116   -3.6902   -0.2569 H   0  0  0  0  0  0  0  0  0  0  0  0
   -1.6444   -2.6053    0.8068 C   0  0  0  0  0  0  0  0  0  0  0  0
   -1.4054   -3.0325    1.7879 H   0  0  0  0  0  0  0  0  0  0  0  0
   -1.9662   -1.5692    0.9694 H   0  0  0  0  0  0  0  0  0  0  0  0
   -2.7811   -3.3471    0.2820 N   0  0  0  0  0  0  0  0  0  0  0  0
   -3.3298   -3.8950    0.9336 H   0  0  0  0  0  0  0  0  0  0  0  0
   -3.3660   -2.9830   -0.9120 C   0  0  0  0  0  0  0  0  0  0  0  0
   -2.9717   -2.0685   -1.6181 O   0  0  0  0  0  0  0  0  0  0  0  0
   -4.5343   -3.8481   -1.2979 C   0  0  0  0  0  0  0  0  0  0  0  0
   -4.2018   -4.8833   -1.4121 H   0  0  0  0  0  0  0  0  0  0  0  0
   -5.3107   -3.7826   -0.5362 H   0  0  0  0  0  0  0  0  0  0  0  0
   -4.9375   -3.4993   -2.2522 H   0  0  0  0  0  0  0  0  0  0  0  0
    2.9306   -1.0921    0.5359 C   0  0  0  0  0  0  0  0  0  0  0  0
    2.5713   -0.1123    0.8432 H   0  0  0  0  0  0  0  0  0  0  0  0
    4.3085   -1.2557    0.3746 C   0  0  0  0  0  0  0  0  0  0  0  0
    4.9826   -0.4171    0.4916 H   0  0  0  0  0  0  0  0  0  0  0  0
    5.5208   -7.0514   -2.2301 C   0  0  0  0  0  0  0  0  0  0  0  0
    6.4819   -7.0671   -1.7199 H   0  0  0  0  0  0  0  0  0  0  0  0
    5.4577   -7.4973   -3.5589 C   0  0  0  0  0  0  0  0  0  0  0  0
    6.3696   -7.8466   -4.0369 H   0  0  0  0  0  0  0  0  0  0  0  0
  1  2  1  0  0  0  0
  2  3  2  0  0  0  0
  2 11  1  0  0  0  0
  3  4  1  0  0  0  0
  4  5  1  0  0  0  0
  4  9  1  0  0  0  0
  5  6  1  0  0  0  0
  5  7  1  0  0  0  0
  5  8  1  0  0  0  0
  9 10  1  0  0  0  0
  9 11  2  0  0  0  0
 11 12  1  0  0  0  0
 12 13  2  0  0  0  0
 12 52  1  0  0  0  0
 13 14  1  0  0  0  0
 13 15  1  0  0  0  0
 15 16  1  0  0  0  0
 15 17  2  0  0  0  0
 17 18  1  0  0  0  0
 17 50  1  0  0  0  0
 18 19  1  0  0  0  0
 18 20  1  0  0  0  0
 18 21  1  0  0  0  0
 21 22  2  0  0  0  0
 21 26  1  0  0  0  0
 22 23  1  0  0  0  0
 23 24  1  0  0  0  0
 23 25  1  0  0  0  0
 25 26  2  0  0  0  0
 25 48  1  0  0  0  0
 26 27  1  0  0  0  0
 27 28  1  0  0  0  0
 27 29  2  0  0  0  0
 29 30  1  0  0  0  0
 29 46  1  0  0  0  0
 30 31  1  0  0  0  0
 30 32  1  0  0  0  0
 32 33  1  0  0  0  0
 32 34  1  0  0  0  0
 32 35  1  0  0  0  0
 35 36  1  0  0  0  0
 35 37  1  0  0  0  0
 35 38  1  0  0  0  0
 38 39  1  0  0  0  0
 38 40  1  0  0  0  0
 40 41  2  0  0  0  0
 40 42  1  0  0  0  0
 42 43  1  0  0  0  0
 42 44  1  0  0  0  0
 42 45  1  0  0  0  0
 46 47  1  0  0  0  0
 46 48  2  0  0  0  0
 48 49  1  0  0  0  0
 50 51  1  0  0  0  0
 50 52  2  0  0  0  0
 52 53  1  0  0  0  0
M  END
$$$$
