lig_15
 OpenBabel01042520393D

 43 45  0  0  0  0  0  0  0  0999 V2000
    2.0860   -7.1649   -4.0085 H   0  0  0  0  0  0  0  0  0  0  0  0
    3.0618   -7.1298   -3.5362 C   0  0  0  0  0  0  0  0  0  0  0  0
    3.1314   -6.6949   -2.2139 C   0  0  0  0  0  0  0  0  0  0  0  0
    2.2119   -6.4271   -1.6999 H   0  0  0  0  0  0  0  0  0  0  0  0
    4.3623   -6.6550   -1.5440 C   0  0  0  0  0  0  0  0  0  0  0  0
    4.4430   -6.2191   -0.1030 C   0  0  0  0  0  0  0  0  0  0  0  0
    3.4755   -6.4077    0.3753 H   0  0  0  0  0  0  0  0  0  0  0  0
    5.1969   -6.8202    0.4166 H   0  0  0  0  0  0  0  0  0  0  0  0
    4.7969   -4.7682   -0.1001 C   0  0  0  0  0  0  0  0  0  0  0  0
    6.0862   -4.3892   -0.0855 N   0  0  0  0  0  0  0  0  0  0  0  0
    6.0319   -3.0551    0.0088 N   0  0  0  0  0  0  0  0  0  0  0  0
    6.9044   -2.5388    0.0161 H   0  0  0  0  0  0  0  0  0  0  0  0
    4.7652   -2.5508    0.1289 C   0  0  0  0  0  0  0  0  0  0  0  0
    3.9197   -3.6480    0.0085 C   0  0  0  0  0  0  0  0  0  0  0  0
    2.5261   -3.4397    0.0724 C   0  0  0  0  0  0  0  0  0  0  0  0
    1.8689   -4.2848   -0.1024 H   0  0  0  0  0  0  0  0  0  0  0  0
    2.0282   -2.1426    0.3140 C   0  0  0  0  0  0  0  0  0  0  0  0
    0.5554   -1.9964    0.4889 C   0  0  0  0  0  0  0  0  0  0  0  0
   -0.0566   -2.9172    1.0275 O   0  0  0  0  0  0  0  0  0  0  0  0
   -0.0478   -0.8311    0.0638 N   0  0  0  0  0  0  0  0  0  0  0  0
    0.4751   -0.1279   -0.4330 H   0  0  0  0  0  0  0  0  0  0  0  0
   -1.4056   -0.5234    0.4431 C   0  0  0  0  0  0  0  0  0  0  0  0
   -2.0260   -1.4230    0.4471 H   0  0  0  0  0  0  0  0  0  0  0  0
   -1.3830   -0.0936    1.4479 H   0  0  0  0  0  0  0  0  0  0  0  0
   -1.8094    0.2089   -0.2607 H   0  0  0  0  0  0  0  0  0  0  0  0
    2.9306   -1.0921    0.5359 C   0  0  0  0  0  0  0  0  0  0  0  0
    2.5556   -0.1145    0.8316 H   0  0  0  0  0  0  0  0  0  0  0  0
    4.3085   -1.2557    0.3746 C   0  0  0  0  0  0  0  0  0  0  0  0
    4.9855   -0.4119    0.4532 H   0  0  0  0  0  0  0  0  0  0  0  0
    5.5208   -7.0514   -2.2301 C   0  0  0  0  0  0  0  0  0  0  0  0
    6.4577   -7.0582   -1.6800 H   0  0  0  0  0  0  0  0  0  0  0  0
    5.4577   -7.4973   -3.5589 C   0  0  0  0  0  0  0  0  0  0  0  0
    6.5374   -7.9462   -4.2792 O   0  0  0  0  0  0  0  0  0  0  0  0
    7.8017   -7.9615   -3.6324 C   0  0  0  0  0  0  0  0  0  0  0  0
    8.1629   -6.9413   -3.4692 H   0  0  0  0  0  0  0  0  0  0  0  0
    7.7752   -8.5282   -2.6955 H   0  0  0  0  0  0  0  0  0  0  0  0
    8.5094   -8.4680   -4.2952 H   0  0  0  0  0  0  0  0  0  0  0  0
    4.2181   -7.5316   -4.2043 C   0  0  0  0  0  0  0  0  0  0  0  0
    4.2500   -7.9848   -5.5003 O   0  0  0  0  0  0  0  0  0  0  0  0
    3.0126   -8.1444   -6.1772 C   0  0  0  0  0  0  0  0  0  0  0  0
    2.3713   -8.8719   -5.6682 H   0  0  0  0  0  0  0  0  0  0  0  0
    2.5032   -7.1834   -6.2991 H   0  0  0  0  0  0  0  0  0  0  0  0
    3.2273   -8.5341   -7.1773 H   0  0  0  0  0  0  0  0  0  0  0  0
  1  2  1  0  0  0  0
  2  3  2  0  0  0  0
  2 38  1  0  0  0  0
  3  4  1  0  0  0  0
  3  5  1  0  0  0  0
  5  6  1  0  0  0  0
  5 30  2  0  0  0  0
  6  7  1  0  0  0  0
  6  8  1  0  0  0  0
  6  9  1  0  0  0  0
  9 10  2  0  0  0  0
  9 14  1  0  0  0  0
 10 11  1  0  0  0  0
 11 12  1  0  0  0  0
 11 13  1  0  0  0  0
 13 14  2  0  0  0  0
 13 28  1  0  0  0  0
 14 15  1  0  0  0  0
 15 16  1  0  0  0  0
 15 17  2  0  0  0  0
 17 18  1  0  0  0  0
 17 26  1  0  0  0  0
 18 19  2  0  0  0  0
 18 20  1  0  0  0  0
 20 21  1  0  0  0  0
 20 22  1  0  0  0  0
 22 23  1  0  0  0  0
 22 24  1  0  0  0  0
 22 25  1  0  0  0  0
 26 27  1  0  0  0  0
 26 28  2  0  0  0  0
 28 29  1  0  0  0  0
 30 31  1  0  0  0  0
 30 32  1  0  0  0  0
 32 33  1  0  0  0  0
 32 38  2  0  0  0  0
 33 34  1  0  0  0  0
 34 35  1  0  0  0  0
 34 36  1  0  0  0  0
 34 37  1  0  0  0  0
 38 39  1  0  0  0  0
 39 40  1  0  0  0  0
 40 41  1  0  0  0  0
 40 42  1  0  0  0  0
 40 43  1  0  0  0  0
M  END
$$$$
