lig_39
 OpenBabel01042520393D

 53 57  0  0  0  0  0  0  0  0999 V2000
    5.7756   -9.5850   -5.8213 H   0  0  0  0  0  0  0  0  0  0  0  0
    4.9468   -9.0132   -6.2142 C   0  0  0  0  0  0  0  0  0  0  0  0
    4.5545   -9.2354   -7.4741 N   0  0  0  0  0  0  0  0  0  0  0  0
    3.5137   -8.3974   -7.6315 N   0  0  0  0  0  0  0  0  0  0  0  0
    2.7993   -8.3799   -8.8837 C   0  0  0  0  0  0  0  0  0  0  0  0
    3.5176   -8.2161   -9.6914 H   0  0  0  0  0  0  0  0  0  0  0  0
    2.2968   -9.3428   -9.0040 H   0  0  0  0  0  0  0  0  0  0  0  0
    2.0633   -7.5726   -8.8707 H   0  0  0  0  0  0  0  0  0  0  0  0
    3.2408   -7.6536   -6.5205 C   0  0  0  0  0  0  0  0  0  0  0  0
    2.4355   -6.9340   -6.5072 H   0  0  0  0  0  0  0  0  0  0  0  0
    4.1582   -8.0365   -5.5629 C   0  0  0  0  0  0  0  0  0  0  0  0
    4.2181   -7.5316   -4.2043 C   0  0  0  0  0  0  0  0  0  0  0  0
    3.0618   -7.1298   -3.5362 C   0  0  0  0  0  0  0  0  0  0  0  0
    2.0886   -7.1734   -4.0182 H   0  0  0  0  0  0  0  0  0  0  0  0
    3.1314   -6.6949   -2.2139 C   0  0  0  0  0  0  0  0  0  0  0  0
    2.2145   -6.3944   -1.7103 H   0  0  0  0  0  0  0  0  0  0  0  0
    4.3623   -6.6550   -1.5440 C   0  0  0  0  0  0  0  0  0  0  0  0
    4.4430   -6.2191   -0.1030 C   0  0  0  0  0  0  0  0  0  0  0  0
    3.4763   -6.3661    0.3965 H   0  0  0  0  0  0  0  0  0  0  0  0
    5.1892   -6.7750    0.4777 H   0  0  0  0  0  0  0  0  0  0  0  0
    4.7969   -4.7682   -0.1001 C   0  0  0  0  0  0  0  0  0  0  0  0
    6.0862   -4.3892   -0.0855 N   0  0  0  0  0  0  0  0  0  0  0  0
    6.0319   -3.0551    0.0088 N   0  0  0  0  0  0  0  0  0  0  0  0
    6.9028   -2.5374   -0.0050 H   0  0  0  0  0  0  0  0  0  0  0  0
    4.7652   -2.5508    0.1289 C   0  0  0  0  0  0  0  0  0  0  0  0
    3.9197   -3.6480    0.0085 C   0  0  0  0  0  0  0  0  0  0  0  0
    2.5261   -3.4397    0.0724 C   0  0  0  0  0  0  0  0  0  0  0  0
    1.8335   -4.2619   -0.0721 H   0  0  0  0  0  0  0  0  0  0  0  0
    2.0282   -2.1426    0.3140 C   0  0  0  0  0  0  0  0  0  0  0  0
    0.5554   -1.9964    0.4889 C   0  0  0  0  0  0  0  0  0  0  0  0
   -0.0566   -2.9172    1.0275 O   0  0  0  0  0  0  0  0  0  0  0  0
   -0.0699   -0.8082    0.1475 N   0  0  0  0  0  0  0  0  0  0  0  0
    0.5079    0.3079   -0.6092 C   0  0  0  0  0  0  0  0  0  0  0  0
    0.0960    0.2301   -1.6228 H   0  0  0  0  0  0  0  0  0  0  0  0
    1.5922    0.2483   -0.6723 H   0  0  0  0  0  0  0  0  0  0  0  0
    0.1188    1.6623   -0.0026 C   0  0  0  0  0  0  0  0  0  0  0  0
    0.6189    1.8154    0.9607 H   0  0  0  0  0  0  0  0  0  0  0  0
    0.4315    2.4697   -0.6725 H   0  0  0  0  0  0  0  0  0  0  0  0
   -1.2950    1.7719    0.1865 O   0  0  0  0  0  0  0  0  0  0  0  0
   -1.7690    0.7310    1.0564 C   0  0  0  0  0  0  0  0  0  0  0  0
   -2.8421    0.8780    1.2019 H   0  0  0  0  0  0  0  0  0  0  0  0
   -1.2791    0.8368    2.0332 H   0  0  0  0  0  0  0  0  0  0  0  0
   -1.4961   -0.6498    0.4479 C   0  0  0  0  0  0  0  0  0  0  0  0
   -2.0330   -0.7525   -0.5005 H   0  0  0  0  0  0  0  0  0  0  0  0
   -1.8511   -1.4272    1.1293 H   0  0  0  0  0  0  0  0  0  0  0  0
    2.9306   -1.0921    0.5359 C   0  0  0  0  0  0  0  0  0  0  0  0
    2.5383   -0.1200    0.8311 H   0  0  0  0  0  0  0  0  0  0  0  0
    4.3085   -1.2557    0.3746 C   0  0  0  0  0  0  0  0  0  0  0  0
    4.9832   -0.4090    0.4460 H   0  0  0  0  0  0  0  0  0  0  0  0
    5.5208   -7.0514   -2.2301 C   0  0  0  0  0  0  0  0  0  0  0  0
    6.4798   -7.0617   -1.7139 H   0  0  0  0  0  0  0  0  0  0  0  0
    5.4577   -7.4973   -3.5589 C   0  0  0  0  0  0  0  0  0  0  0  0
    6.3782   -7.8114   -4.0465 H   0  0  0  0  0  0  0  0  0  0  0  0
  1  2  1  0  0  0  0
  2  3  2  0  0  0  0
  2 11  1  0  0  0  0
  3  4  1  0  0  0  0
  4  5  1  0  0  0  0
  4  9  1  0  0  0  0
  5  6  1  0  0  0  0
  5  7  1  0  0  0  0
  5  8  1  0  0  0  0
  9 10  1  0  0  0  0
  9 11  2  0  0  0  0
 11 12  1  0  0  0  0
 12 13  2  0  0  0  0
 12 52  1  0  0  0  0
 13 14  1  0  0  0  0
 13 15  1  0  0  0  0
 15 16  1  0  0  0  0
 15 17  2  0  0  0  0
 17 18  1  0  0  0  0
 17 50  1  0  0  0  0
 18 19  1  0  0  0  0
 18 20  1  0  0  0  0
 18 21  1  0  0  0  0
 21 22  2  0  0  0  0
 21 26  1  0  0  0  0
 22 23  1  0  0  0  0
 23 24  1  0  0  0  0
 23 25  1  0  0  0  0
 25 26  2  0  0  0  0
 25 48  1  0  0  0  0
 26 27  1  0  0  0  0
 27 28  1  0  0  0  0
 27 29  2  0  0  0  0
 29 30  1  0  0  0  0
 29 46  1  0  0  0  0
 30 31  2  0  0  0  0
 30 32  1  0  0  0  0
 32 33  1  0  0  0  0
 32 43  1  0  0  0  0
 33 34  1  0  0  0  0
 33 35  1  0  0  0  0
 33 36  1  0  0  0  0
 36 37  1  0  0  0  0
 36 38  1  0  0  0  0
 36 39  1  0  0  0  0
 39 40  1  0  0  0  0
 40 41  1  0  0  0  0
 40 42  1  0  0  0  0
 40 43  1  0  0  0  0
 43 44  1  0  0  0  0
 43 45  1  0  0  0  0
 46 47  1  0  0  0  0
 46 48  2  0  0  0  0
 48 49  1  0  0  0  0
 50 51  1  0  0  0  0
 50 52  2  0  0  0  0
 52 53  1  0  0  0  0
M  END
$$$$
