lig_35
 OpenBabel01042520393D

 50 54  0  0  0  0  0  0  0  0999 V2000
   -0.3553    2.5681    1.5026 H   0  0  0  0  0  0  0  0  0  0  0  0
   -0.8007    1.7269    1.7015 O   0  0  0  0  0  0  0  0  0  0  0  0
   -0.9299    1.0526    0.4280 C   0  0  0  0  0  0  0  0  0  0  0  0
   -1.5147    1.6824   -0.2536 H   0  0  0  0  0  0  0  0  0  0  0  0
    0.3688    0.5244   -0.2113 C   0  0  0  0  0  0  0  0  0  0  0  0
    0.4222    0.6751   -1.2937 H   0  0  0  0  0  0  0  0  0  0  0  0
    1.2902    0.8577    0.2699 H   0  0  0  0  0  0  0  0  0  0  0  0
   -0.0699   -0.8082    0.1475 N   0  0  0  0  0  0  0  0  0  0  0  0
    0.5554   -1.9964    0.4889 C   0  0  0  0  0  0  0  0  0  0  0  0
   -0.0566   -2.9172    1.0275 O   0  0  0  0  0  0  0  0  0  0  0  0
    2.0282   -2.1426    0.3140 C   0  0  0  0  0  0  0  0  0  0  0  0
    2.5261   -3.4397    0.0724 C   0  0  0  0  0  0  0  0  0  0  0  0
    1.8422   -4.2694   -0.0895 H   0  0  0  0  0  0  0  0  0  0  0  0
    3.9197   -3.6480    0.0085 C   0  0  0  0  0  0  0  0  0  0  0  0
    4.7652   -2.5508    0.1289 C   0  0  0  0  0  0  0  0  0  0  0  0
    4.3085   -1.2557    0.3746 C   0  0  0  0  0  0  0  0  0  0  0  0
    4.9834   -0.4063    0.3979 H   0  0  0  0  0  0  0  0  0  0  0  0
    2.9306   -1.0921    0.5359 C   0  0  0  0  0  0  0  0  0  0  0  0
    2.5787   -0.1025    0.8049 H   0  0  0  0  0  0  0  0  0  0  0  0
    6.0319   -3.0551    0.0088 N   0  0  0  0  0  0  0  0  0  0  0  0
    6.8992   -2.5357   -0.0548 H   0  0  0  0  0  0  0  0  0  0  0  0
    6.0862   -4.3892   -0.0855 N   0  0  0  0  0  0  0  0  0  0  0  0
    4.7969   -4.7682   -0.1001 C   0  0  0  0  0  0  0  0  0  0  0  0
    4.4430   -6.2191   -0.1030 C   0  0  0  0  0  0  0  0  0  0  0  0
    5.1896   -6.8088    0.4422 H   0  0  0  0  0  0  0  0  0  0  0  0
    3.4848   -6.3875    0.4044 H   0  0  0  0  0  0  0  0  0  0  0  0
    4.3623   -6.6550   -1.5440 C   0  0  0  0  0  0  0  0  0  0  0  0
    3.1314   -6.6949   -2.2139 C   0  0  0  0  0  0  0  0  0  0  0  0
    2.2170   -6.3858   -1.7128 H   0  0  0  0  0  0  0  0  0  0  0  0
    3.0618   -7.1298   -3.5362 C   0  0  0  0  0  0  0  0  0  0  0  0
    2.0890   -7.1569   -4.0199 H   0  0  0  0  0  0  0  0  0  0  0  0
    4.2181   -7.5316   -4.2043 C   0  0  0  0  0  0  0  0  0  0  0  0
    4.1621   -8.0067   -5.5774 C   0  0  0  0  0  0  0  0  0  0  0  0
    3.2339   -7.6109   -6.5192 C   0  0  0  0  0  0  0  0  0  0  0  0
    2.4099   -6.9131   -6.4762 H   0  0  0  0  0  0  0  0  0  0  0  0
    3.5307   -8.2924   -7.6634 N   0  0  0  0  0  0  0  0  0  0  0  0
    2.8316   -8.2158   -8.9227 C   0  0  0  0  0  0  0  0  0  0  0  0
    3.5416   -7.9092   -9.6944 H   0  0  0  0  0  0  0  0  0  0  0  0
    2.4185   -9.2022   -9.1479 H   0  0  0  0  0  0  0  0  0  0  0  0
    2.0248   -7.4824   -8.8465 H   0  0  0  0  0  0  0  0  0  0  0  0
    4.5945   -9.1058   -7.5428 N   0  0  0  0  0  0  0  0  0  0  0  0
    4.9776   -8.9290   -6.2745 C   0  0  0  0  0  0  0  0  0  0  0  0
    5.8292   -9.4868   -5.9071 H   0  0  0  0  0  0  0  0  0  0  0  0
    5.4577   -7.4973   -3.5589 C   0  0  0  0  0  0  0  0  0  0  0  0
    6.3799   -7.7933   -4.0523 H   0  0  0  0  0  0  0  0  0  0  0  0
    5.5208   -7.0514   -2.2301 C   0  0  0  0  0  0  0  0  0  0  0  0
    6.4866   -7.0121   -1.7271 H   0  0  0  0  0  0  0  0  0  0  0  0
   -1.4326   -0.4033    0.4564 C   0  0  0  0  0  0  0  0  0  0  0  0
   -1.8045   -0.7469    1.4249 H   0  0  0  0  0  0  0  0  0  0  0  0
   -2.1332   -0.6769   -0.3387 H   0  0  0  0  0  0  0  0  0  0  0  0
  1  2  1  0  0  0  0
  2  3  1  0  0  0  0
  3  4  1  0  0  0  0
  3  5  1  0  0  0  0
  3 48  1  0  0  0  0
  5  6  1  0  0  0  0
  5  7  1  0  0  0  0
  5  8  1  0  0  0  0
  8  9  1  0  0  0  0
  8 48  1  0  0  0  0
  9 10  2  0  0  0  0
  9 11  1  0  0  0  0
 11 12  2  0  0  0  0
 11 18  1  0  0  0  0
 12 13  1  0  0  0  0
 12 14  1  0  0  0  0
 14 15  2  0  0  0  0
 14 23  1  0  0  0  0
 15 16  1  0  0  0  0
 15 20  1  0  0  0  0
 16 17  1  0  0  0  0
 16 18  2  0  0  0  0
 18 19  1  0  0  0  0
 20 21  1  0  0  0  0
 20 22  1  0  0  0  0
 22 23  2  0  0  0  0
 23 24  1  0  0  0  0
 24 25  1  0  0  0  0
 24 26  1  0  0  0  0
 24 27  1  0  0  0  0
 27 28  2  0  0  0  0
 27 46  1  0  0  0  0
 28 29  1  0  0  0  0
 28 30  1  0  0  0  0
 30 31  1  0  0  0  0
 30 32  2  0  0  0  0
 32 33  1  0  0  0  0
 32 44  1  0  0  0  0
 33 34  2  0  0  0  0
 33 42  1  0  0  0  0
 34 35  1  0  0  0  0
 34 36  1  0  0  0  0
 36 37  1  0  0  0  0
 36 41  1  0  0  0  0
 37 38  1  0  0  0  0
 37 39  1  0  0  0  0
 37 40  1  0  0  0  0
 41 42  2  0  0  0  0
 42 43  1  0  0  0  0
 44 45  1  0  0  0  0
 44 46  2  0  0  0  0
 46 47  1  0  0  0  0
 48 49  1  0  0  0  0
 48 50  1  0  0  0  0
M  END
$$$$
