lig_45
 OpenBabel01042520393D

 49 53  0  0  0  0  0  0  0  0999 V2000
    0.9726   -7.0776   -4.3656 H   0  0  0  0  0  0  0  0  0  0  0  0
    2.0290   -7.2805   -4.4866 C   0  0  0  0  0  0  0  0  0  0  0  0
    2.4708   -7.7219   -5.6663 N   0  0  0  0  0  0  0  0  0  0  0  0
    3.7988   -7.8570   -5.4708 N   0  0  0  0  0  0  0  0  0  0  0  0
    4.6371   -8.2714   -6.5694 C   0  0  0  0  0  0  0  0  0  0  0  0
    5.2982   -7.4404   -6.8272 H   0  0  0  0  0  0  0  0  0  0  0  0
    5.2161   -9.1430   -6.2564 H   0  0  0  0  0  0  0  0  0  0  0  0
    4.0137   -8.5305   -7.4298 H   0  0  0  0  0  0  0  0  0  0  0  0
    4.2181   -7.5316   -4.2043 C   0  0  0  0  0  0  0  0  0  0  0  0
    3.0618   -7.1298   -3.5362 C   0  0  0  0  0  0  0  0  0  0  0  0
    3.1314   -6.6949   -2.2139 C   0  0  0  0  0  0  0  0  0  0  0  0
    2.2301   -6.3751   -1.6957 H   0  0  0  0  0  0  0  0  0  0  0  0
    4.3623   -6.6550   -1.5440 C   0  0  0  0  0  0  0  0  0  0  0  0
    4.4430   -6.2191   -0.1030 C   0  0  0  0  0  0  0  0  0  0  0  0
    3.4854   -6.3937    0.4016 H   0  0  0  0  0  0  0  0  0  0  0  0
    5.1920   -6.8142    0.4325 H   0  0  0  0  0  0  0  0  0  0  0  0
    4.7969   -4.7682   -0.1001 C   0  0  0  0  0  0  0  0  0  0  0  0
    6.0862   -4.3892   -0.0855 N   0  0  0  0  0  0  0  0  0  0  0  0
    6.0319   -3.0551    0.0088 N   0  0  0  0  0  0  0  0  0  0  0  0
    6.9037   -2.5388   -0.0023 H   0  0  0  0  0  0  0  0  0  0  0  0
    4.7652   -2.5508    0.1289 C   0  0  0  0  0  0  0  0  0  0  0  0
    3.9197   -3.6480    0.0085 C   0  0  0  0  0  0  0  0  0  0  0  0
    2.5261   -3.4397    0.0724 C   0  0  0  0  0  0  0  0  0  0  0  0
    1.8519   -4.2807   -0.0496 H   0  0  0  0  0  0  0  0  0  0  0  0
    2.0282   -2.1426    0.3140 C   0  0  0  0  0  0  0  0  0  0  0  0
    0.5554   -1.9964    0.4889 C   0  0  0  0  0  0  0  0  0  0  0  0
   -0.0566   -2.9172    1.0275 O   0  0  0  0  0  0  0  0  0  0  0  0
   -0.0699   -0.8082    0.1475 N   0  0  0  0  0  0  0  0  0  0  0  0
   -1.4270   -0.4299    0.5287 C   0  0  0  0  0  0  0  0  0  0  0  0
   -2.1097   -0.4280   -0.3276 H   0  0  0  0  0  0  0  0  0  0  0  0
   -1.8530   -1.0183    1.3438 H   0  0  0  0  0  0  0  0  0  0  0  0
   -0.8814    0.9513    0.9234 C   0  0  0  0  0  0  0  0  0  0  0  0
   -1.3688    1.7587    0.3619 H   0  0  0  0  0  0  0  0  0  0  0  0
   -0.9074    1.2497    2.3417 O   0  0  0  0  0  0  0  0  0  0  0  0
   -0.3484    2.4940    2.7306 C   0  0  0  0  0  0  0  0  0  0  0  0
    0.7183    2.5206    2.4935 H   0  0  0  0  0  0  0  0  0  0  0  0
   -0.8655    3.3147    2.2258 H   0  0  0  0  0  0  0  0  0  0  0  0
   -0.4729    2.6070    3.8102 H   0  0  0  0  0  0  0  0  0  0  0  0
    0.4688    0.5399    0.3140 C   0  0  0  0  0  0  0  0  0  0  0  0
    1.3067    0.6041    1.0136 H   0  0  0  0  0  0  0  0  0  0  0  0
    0.7368    1.0098   -0.6366 H   0  0  0  0  0  0  0  0  0  0  0  0
    2.9306   -1.0921    0.5359 C   0  0  0  0  0  0  0  0  0  0  0  0
    2.5565   -0.1163    0.8434 H   0  0  0  0  0  0  0  0  0  0  0  0
    4.3085   -1.2557    0.3746 C   0  0  0  0  0  0  0  0  0  0  0  0
    4.9873   -0.4112    0.4421 H   0  0  0  0  0  0  0  0  0  0  0  0
    5.5208   -7.0514   -2.2301 C   0  0  0  0  0  0  0  0  0  0  0  0
    6.4939   -7.0081   -1.7457 H   0  0  0  0  0  0  0  0  0  0  0  0
    5.4577   -7.4973   -3.5589 C   0  0  0  0  0  0  0  0  0  0  0  0
    6.3711   -7.7947   -4.0625 H   0  0  0  0  0  0  0  0  0  0  0  0
  1  2  1  0  0  0  0
  2  3  2  0  0  0  0
  2 10  1  0  0  0  0
  3  4  1  0  0  0  0
  4  5  1  0  0  0  0
  4  9  1  0  0  0  0
  5  6  1  0  0  0  0
  5  7  1  0  0  0  0
  5  8  1  0  0  0  0
  9 10  2  0  0  0  0
  9 48  1  0  0  0  0
 10 11  1  0  0  0  0
 11 12  1  0  0  0  0
 11 13  2  0  0  0  0
 13 14  1  0  0  0  0
 13 46  1  0  0  0  0
 14 15  1  0  0  0  0
 14 16  1  0  0  0  0
 14 17  1  0  0  0  0
 17 18  2  0  0  0  0
 17 22  1  0  0  0  0
 18 19  1  0  0  0  0
 19 20  1  0  0  0  0
 19 21  1  0  0  0  0
 21 22  2  0  0  0  0
 21 44  1  0  0  0  0
 22 23  1  0  0  0  0
 23 24  1  0  0  0  0
 23 25  2  0  0  0  0
 25 26  1  0  0  0  0
 25 42  1  0  0  0  0
 26 27  2  0  0  0  0
 26 28  1  0  0  0  0
 28 29  1  0  0  0  0
 28 39  1  0  0  0  0
 29 30  1  0  0  0  0
 29 31  1  0  0  0  0
 29 32  1  0  0  0  0
 32 33  1  0  0  0  0
 32 34  1  0  0  0  0
 32 39  1  0  0  0  0
 34 35  1  0  0  0  0
 35 36  1  0  0  0  0
 35 37  1  0  0  0  0
 35 38  1  0  0  0  0
 39 40  1  0  0  0  0
 39 41  1  0  0  0  0
 42 43  1  0  0  0  0
 42 44  2  0  0  0  0
 44 45  1  0  0  0  0
 46 47  1  0  0  0  0
 46 48  2  0  0  0  0
 48 49  1  0  0  0  0
M  END
$$$$
