lig_29
 OpenBabel01042520393D

 50 54  0  0  0  0  0  0  0  0999 V2000
    5.7680   -9.5694   -5.8465 H   0  0  0  0  0  0  0  0  0  0  0  0
    4.9068   -9.0297   -6.2197 C   0  0  0  0  0  0  0  0  0  0  0  0
    4.4794   -9.2843   -7.4588 N   0  0  0  0  0  0  0  0  0  0  0  0
    3.4153   -8.4743   -7.5943 N   0  0  0  0  0  0  0  0  0  0  0  0
    2.6799   -8.4759   -8.8346 C   0  0  0  0  0  0  0  0  0  0  0  0
    3.3840   -8.3136   -9.6544 H   0  0  0  0  0  0  0  0  0  0  0  0
    2.1860   -9.4451   -8.9382 H   0  0  0  0  0  0  0  0  0  0  0  0
    1.9370   -7.6746   -8.8179 H   0  0  0  0  0  0  0  0  0  0  0  0
    3.1525   -7.7270   -6.4822 C   0  0  0  0  0  0  0  0  0  0  0  0
    2.3258   -7.0324   -6.4496 H   0  0  0  0  0  0  0  0  0  0  0  0
    4.1174   -8.0602   -5.5542 C   0  0  0  0  0  0  0  0  0  0  0  0
    4.2181   -7.5316   -4.2043 C   0  0  0  0  0  0  0  0  0  0  0  0
    3.0618   -7.1298   -3.5362 C   0  0  0  0  0  0  0  0  0  0  0  0
    2.0904   -7.2074   -4.0165 H   0  0  0  0  0  0  0  0  0  0  0  0
    3.1314   -6.6949   -2.2139 C   0  0  0  0  0  0  0  0  0  0  0  0
    2.2113   -6.4351   -1.6969 H   0  0  0  0  0  0  0  0  0  0  0  0
    4.3623   -6.6550   -1.5440 C   0  0  0  0  0  0  0  0  0  0  0  0
    4.4430   -6.2191   -0.1030 C   0  0  0  0  0  0  0  0  0  0  0  0
    3.4740   -6.4067    0.3781 H   0  0  0  0  0  0  0  0  0  0  0  0
    5.2023   -6.8036    0.4230 H   0  0  0  0  0  0  0  0  0  0  0  0
    4.7969   -4.7682   -0.1001 C   0  0  0  0  0  0  0  0  0  0  0  0
    6.0862   -4.3892   -0.0855 N   0  0  0  0  0  0  0  0  0  0  0  0
    6.0319   -3.0551    0.0088 N   0  0  0  0  0  0  0  0  0  0  0  0
    6.9018   -2.5347    0.0530 H   0  0  0  0  0  0  0  0  0  0  0  0
    4.7652   -2.5508    0.1289 C   0  0  0  0  0  0  0  0  0  0  0  0
    3.9197   -3.6480    0.0085 C   0  0  0  0  0  0  0  0  0  0  0  0
    2.5261   -3.4397    0.0724 C   0  0  0  0  0  0  0  0  0  0  0  0
    1.8607   -4.2941   -0.0602 H   0  0  0  0  0  0  0  0  0  0  0  0
    2.0282   -2.1426    0.3140 C   0  0  0  0  0  0  0  0  0  0  0  0
    0.3056   -1.6880    0.3086 S   0  0  0  0  0  0  0  0  0  0  0  0
    0.1540   -0.5778   -0.6085 O   0  0  0  0  0  0  0  0  0  0  0  0
   -0.4991   -2.8933    0.1597 O   0  0  0  0  0  0  0  0  0  0  0  0
    0.0068   -1.0488    1.8745 N   0  0  0  0  0  0  0  0  0  0  0  0
   -0.8499   -0.4928    1.8001 H   0  0  0  0  0  0  0  0  0  0  0  0
   -0.0342   -2.0163    2.9794 C   0  0  0  0  0  0  0  0  0  0  0  0
   -0.5447   -2.9334    2.6931 H   0  0  0  0  0  0  0  0  0  0  0  0
   -0.2965   -1.5749    4.3977 C   0  0  0  0  0  0  0  0  0  0  0  0
   -0.3436   -0.5166    4.6490 H   0  0  0  0  0  0  0  0  0  0  0  0
   -0.9375   -2.1909    5.0232 H   0  0  0  0  0  0  0  0  0  0  0  0
    1.0414   -2.1341    4.0199 C   0  0  0  0  0  0  0  0  0  0  0  0
    1.2931   -3.1220    4.3782 H   0  0  0  0  0  0  0  0  0  0  0  0
    1.8781   -1.4374    4.0433 H   0  0  0  0  0  0  0  0  0  0  0  0
    2.9306   -1.0921    0.5359 C   0  0  0  0  0  0  0  0  0  0  0  0
    2.5453   -0.1173    0.8243 H   0  0  0  0  0  0  0  0  0  0  0  0
    4.3085   -1.2557    0.3746 C   0  0  0  0  0  0  0  0  0  0  0  0
    4.9838   -0.4129    0.4723 H   0  0  0  0  0  0  0  0  0  0  0  0
    5.5208   -7.0514   -2.2301 C   0  0  0  0  0  0  0  0  0  0  0  0
    6.4826   -7.0621   -1.7166 H   0  0  0  0  0  0  0  0  0  0  0  0
    5.4577   -7.4973   -3.5589 C   0  0  0  0  0  0  0  0  0  0  0  0
    6.3557   -7.8444   -4.0648 H   0  0  0  0  0  0  0  0  0  0  0  0
  1  2  1  0  0  0  0
  2  3  2  0  0  0  0
  2 11  1  0  0  0  0
  3  4  1  0  0  0  0
  4  5  1  0  0  0  0
  4  9  1  0  0  0  0
  5  6  1  0  0  0  0
  5  7  1  0  0  0  0
  5  8  1  0  0  0  0
  9 10  1  0  0  0  0
  9 11  2  0  0  0  0
 11 12  1  0  0  0  0
 12 13  2  0  0  0  0
 12 49  1  0  0  0  0
 13 14  1  0  0  0  0
 13 15  1  0  0  0  0
 15 16  1  0  0  0  0
 15 17  2  0  0  0  0
 17 18  1  0  0  0  0
 17 47  1  0  0  0  0
 18 19  1  0  0  0  0
 18 20  1  0  0  0  0
 18 21  1  0  0  0  0
 21 22  2  0  0  0  0
 21 26  1  0  0  0  0
 22 23  1  0  0  0  0
 23 24  1  0  0  0  0
 23 25  1  0  0  0  0
 25 26  2  0  0  0  0
 25 45  1  0  0  0  0
 26 27  1  0  0  0  0
 27 28  1  0  0  0  0
 27 29  2  0  0  0  0
 29 30  1  0  0  0  0
 29 43  1  0  0  0  0
 30 31  2  0  0  0  0
 30 32  2  0  0  0  0
 30 33  1  0  0  0  0
 33 34  1  0  0  0  0
 33 35  1  0  0  0  0
 35 36  1  0  0  0  0
 35 37  1  0  0  0  0
 35 40  1  0  0  0  0
 37 38  1  0  0  0  0
 37 39  1  0  0  0  0
 37 40  1  0  0  0  0
 40 41  1  0  0  0  0
 40 42  1  0  0  0  0
 43 44  1  0  0  0  0
 43 45  2  0  0  0  0
 45 46  1  0  0  0  0
 47 48  1  0  0  0  0
 47 49  2  0  0  0  0
 49 50  1  0  0  0  0
M  END
$$$$
