lig_31
 OpenBabel01042520393D

 53 57  0  0  1  0  0  0  0  0999 V2000
   -3.4889    0.4251   -0.5560 H   0  0  0  0  0  0  0  0  0  0  0  0
   -2.7085    0.9138   -0.8732 O   0  0  0  0  0  0  0  0  0  0  0  0
   -1.7269    0.8928    0.1588 C   0  0  1  0  0  0  0  0  0  0  0  0
   -2.1056    1.4813    0.9991 H   0  0  0  0  0  0  0  0  0  0  0  0
   -1.4314   -0.5445    0.5895 C   0  0  0  0  0  0  0  0  0  0  0  0
   -1.4275   -0.5728    1.6834 H   0  0  0  0  0  0  0  0  0  0  0  0
   -2.1264   -1.2772    0.1770 H   0  0  0  0  0  0  0  0  0  0  0  0
   -0.0699   -0.8082    0.1475 N   0  0  0  0  0  0  0  0  0  0  0  0
    0.5554   -1.9964    0.4889 C   0  0  0  0  0  0  0  0  0  0  0  0
   -0.0566   -2.9172    1.0275 O   0  0  0  0  0  0  0  0  0  0  0  0
    2.0282   -2.1426    0.3140 C   0  0  0  0  0  0  0  0  0  0  0  0
    2.5261   -3.4397    0.0724 C   0  0  0  0  0  0  0  0  0  0  0  0
    1.8372   -4.2625   -0.1017 H   0  0  0  0  0  0  0  0  0  0  0  0
    3.9197   -3.6480    0.0085 C   0  0  0  0  0  0  0  0  0  0  0  0
    4.7652   -2.5508    0.1289 C   0  0  0  0  0  0  0  0  0  0  0  0
    4.3085   -1.2557    0.3746 C   0  0  0  0  0  0  0  0  0  0  0  0
    4.9783   -0.4040    0.3748 H   0  0  0  0  0  0  0  0  0  0  0  0
    2.9306   -1.0921    0.5359 C   0  0  0  0  0  0  0  0  0  0  0  0
    2.5893   -0.0982    0.7956 H   0  0  0  0  0  0  0  0  0  0  0  0
    6.0319   -3.0551    0.0088 N   0  0  0  0  0  0  0  0  0  0  0  0
    6.8959   -2.5318   -0.0656 H   0  0  0  0  0  0  0  0  0  0  0  0
    6.0862   -4.3892   -0.0855 N   0  0  0  0  0  0  0  0  0  0  0  0
    4.7969   -4.7682   -0.1001 C   0  0  0  0  0  0  0  0  0  0  0  0
    4.4430   -6.2191   -0.1030 C   0  0  0  0  0  0  0  0  0  0  0  0
    5.1846   -6.8116    0.4449 H   0  0  0  0  0  0  0  0  0  0  0  0
    3.4797   -6.3821    0.3929 H   0  0  0  0  0  0  0  0  0  0  0  0
    4.3623   -6.6550   -1.5440 C   0  0  0  0  0  0  0  0  0  0  0  0
    3.1314   -6.6949   -2.2139 C   0  0  0  0  0  0  0  0  0  0  0  0
    2.2147   -6.4079   -1.7033 H   0  0  0  0  0  0  0  0  0  0  0  0
    3.0618   -7.1298   -3.5362 C   0  0  0  0  0  0  0  0  0  0  0  0
    2.0864   -7.1843   -4.0123 H   0  0  0  0  0  0  0  0  0  0  0  0
    4.2181   -7.5316   -4.2043 C   0  0  0  0  0  0  0  0  0  0  0  0
    4.1140   -8.0523   -5.5562 C   0  0  0  0  0  0  0  0  0  0  0  0
    3.1518   -7.7091   -6.4837 C   0  0  0  0  0  0  0  0  0  0  0  0
    2.3296   -7.0084   -6.4512 H   0  0  0  0  0  0  0  0  0  0  0  0
    3.3957   -8.4707   -7.5902 N   0  0  0  0  0  0  0  0  0  0  0  0
    2.6361   -8.4908   -8.8161 C   0  0  0  0  0  0  0  0  0  0  0  0
    3.3169   -8.2974   -9.6486 H   0  0  0  0  0  0  0  0  0  0  0  0
    2.1751   -9.4766   -8.9173 H   0  0  0  0  0  0  0  0  0  0  0  0
    1.8638   -7.7188   -8.7785 H   0  0  0  0  0  0  0  0  0  0  0  0
    4.4569   -9.2857   -7.4589 N   0  0  0  0  0  0  0  0  0  0  0  0
    4.8899   -9.0324   -6.2209 C   0  0  0  0  0  0  0  0  0  0  0  0
    5.7415   -9.5844   -5.8450 H   0  0  0  0  0  0  0  0  0  0  0  0
    5.4577   -7.4973   -3.5589 C   0  0  0  0  0  0  0  0  0  0  0  0
    6.3768   -7.8195   -4.0443 H   0  0  0  0  0  0  0  0  0  0  0  0
    5.5208   -7.0514   -2.2301 C   0  0  0  0  0  0  0  0  0  0  0  0
    6.4830   -7.0417   -1.7187 H   0  0  0  0  0  0  0  0  0  0  0  0
    0.2820    0.1522   -0.8908 C   0  0  0  0  0  0  0  0  0  0  0  0
    1.3694    0.2332   -0.9772 H   0  0  0  0  0  0  0  0  0  0  0  0
   -0.1247   -0.1989   -1.8470 H   0  0  0  0  0  0  0  0  0  0  0  0
   -0.3955    1.4219   -0.3811 C   0  0  0  0  0  0  0  0  0  0  0  0
   -0.5080    2.1735   -1.1690 H   0  0  0  0  0  0  0  0  0  0  0  0
    0.1921    1.8511    0.4381 H   0  0  0  0  0  0  0  0  0  0  0  0
  1  2  1  0  0  0  0
  2  3  1  0  0  0  0
  3  4  1  6  0  0  0
  3  5  1  0  0  0  0
  3 51  1  0  0  0  0
  5  6  1  0  0  0  0
  5  7  1  0  0  0  0
  5  8  1  0  0  0  0
  8  9  1  0  0  0  0
  8 48  1  0  0  0  0
  9 10  2  0  0  0  0
  9 11  1  0  0  0  0
 11 12  2  0  0  0  0
 11 18  1  0  0  0  0
 12 13  1  0  0  0  0
 12 14  1  0  0  0  0
 14 15  2  0  0  0  0
 14 23  1  0  0  0  0
 15 16  1  0  0  0  0
 15 20  1  0  0  0  0
 16 17  1  0  0  0  0
 16 18  2  0  0  0  0
 18 19  1  0  0  0  0
 20 21  1  0  0  0  0
 20 22  1  0  0  0  0
 22 23  2  0  0  0  0
 23 24  1  0  0  0  0
 24 25  1  0  0  0  0
 24 26  1  0  0  0  0
 24 27  1  0  0  0  0
 27 28  2  0  0  0  0
 27 46  1  0  0  0  0
 28 29  1  0  0  0  0
 28 30  1  0  0  0  0
 30 31  1  0  0  0  0
 30 32  2  0  0  0  0
 32 33  1  0  0  0  0
 32 44  1  0  0  0  0
 33 34  2  0  0  0  0
 33 42  1  0  0  0  0
 34 35  1  0  0  0  0
 34 36  1  0  0  0  0
 36 37  1  0  0  0  0
 36 41  1  0  0  0  0
 37 38  1  0  0  0  0
 37 39  1  0  0  0  0
 37 40  1  0  0  0  0
 41 42  2  0  0  0  0
 42 43  1  0  0  0  0
 44 45  1  0  0  0  0
 44 46  2  0  0  0  0
 46 47  1  0  0  0  0
 48 49  1  0  0  0  0
 48 50  1  0  0  0  0
 48 51  1  0  0  0  0
 51 52  1  0  0  0  0
 51 53  1  0  0  0  0
M  END
$$$$
