lig_13
 OpenBabel01042520393D

 47 50  0  0  1  0  0  0  0  0999 V2000
    1.6445    0.0559    1.3534 H   0  0  0  0  0  0  0  0  0  0  0  0
    2.5510    0.1420    1.0028 O   0  0  0  0  0  0  0  0  0  0  0  0
    2.9306   -1.0921    0.5359 C   0  0  0  0  0  0  0  0  0  0  0  0
    2.0282   -2.1426    0.3140 C   0  0  0  0  0  0  0  0  0  0  0  0
    0.5554   -1.9964    0.4889 C   0  0  0  0  0  0  0  0  0  0  0  0
   -0.0566   -2.9172    1.0275 O   0  0  0  0  0  0  0  0  0  0  0  0
   -0.0699   -0.8082    0.1475 N   0  0  0  0  0  0  0  0  0  0  0  0
   -1.4314   -0.5445    0.5895 C   0  0  0  0  0  0  0  0  0  0  0  0
   -2.1101   -1.2505    0.0980 H   0  0  0  0  0  0  0  0  0  0  0  0
   -1.5010   -0.6852    1.6725 H   0  0  0  0  0  0  0  0  0  0  0  0
   -1.7269    0.8928    0.1588 C   0  0  0  0  0  0  0  0  0  0  0  0
   -2.0858    1.4985    0.9982 H   0  0  0  0  0  0  0  0  0  0  0  0
   -2.5094    0.9193   -0.6082 H   0  0  0  0  0  0  0  0  0  0  0  0
   -0.3955    1.4219   -0.3811 C   0  0  2  0  0  0  0  0  0  0  0  0
    0.1800    1.8653    0.4415 H   0  0  0  0  0  0  0  0  0  0  0  0
   -0.6003    2.3970   -1.3831 O   0  0  0  0  0  0  0  0  0  0  0  0
    0.2634    2.8037   -1.5749 H   0  0  0  0  0  0  0  0  0  0  0  0
    0.2820    0.1522   -0.8908 C   0  0  0  0  0  0  0  0  0  0  0  0
   -0.1685   -0.1829   -1.8339 H   0  0  0  0  0  0  0  0  0  0  0  0
    1.3484    0.2655   -1.0791 H   0  0  0  0  0  0  0  0  0  0  0  0
    2.5261   -3.4397    0.0724 C   0  0  0  0  0  0  0  0  0  0  0  0
    1.8424   -4.2815   -0.0103 H   0  0  0  0  0  0  0  0  0  0  0  0
    3.9197   -3.6480    0.0085 C   0  0  0  0  0  0  0  0  0  0  0  0
    4.7969   -4.7682   -0.1001 C   0  0  0  0  0  0  0  0  0  0  0  0
    4.4430   -6.2191   -0.1030 C   0  0  0  0  0  0  0  0  0  0  0  0
    3.4923   -6.3959    0.4127 H   0  0  0  0  0  0  0  0  0  0  0  0
    5.1988   -6.8100    0.4301 H   0  0  0  0  0  0  0  0  0  0  0  0
    4.3623   -6.6550   -1.5440 C   0  0  0  0  0  0  0  0  0  0  0  0
    3.1314   -6.6949   -2.2139 C   0  0  0  0  0  0  0  0  0  0  0  0
    2.2178   -6.3938   -1.7053 H   0  0  0  0  0  0  0  0  0  0  0  0
    3.0618   -7.1298   -3.5362 C   0  0  0  0  0  0  0  0  0  0  0  0
    2.1024   -7.1602   -4.0467 H   0  0  0  0  0  0  0  0  0  0  0  0
    4.2181   -7.5316   -4.2043 C   0  0  0  0  0  0  0  0  0  0  0  0
    4.1429   -7.8704   -5.2358 H   0  0  0  0  0  0  0  0  0  0  0  0
    5.4577   -7.4973   -3.5589 C   0  0  0  0  0  0  0  0  0  0  0  0
    6.7123   -7.9197   -4.2630 C   0  0  0  0  0  0  0  0  0  0  0  0
    7.3965   -7.0703   -4.3567 H   0  0  0  0  0  0  0  0  0  0  0  0
    7.2075   -8.7207   -3.7043 H   0  0  0  0  0  0  0  0  0  0  0  0
    6.5007   -8.2967   -5.2689 H   0  0  0  0  0  0  0  0  0  0  0  0
    5.5208   -7.0514   -2.2301 C   0  0  0  0  0  0  0  0  0  0  0  0
    6.4836   -7.0117   -1.7222 H   0  0  0  0  0  0  0  0  0  0  0  0
    6.0862   -4.3892   -0.0855 N   0  0  0  0  0  0  0  0  0  0  0  0
    6.0319   -3.0551    0.0088 N   0  0  0  0  0  0  0  0  0  0  0  0
    6.9054   -2.5402    0.0374 H   0  0  0  0  0  0  0  0  0  0  0  0
    4.7652   -2.5508    0.1289 C   0  0  0  0  0  0  0  0  0  0  0  0
    4.3085   -1.2557    0.3746 C   0  0  0  0  0  0  0  0  0  0  0  0
    4.9910   -0.4248    0.5197 H   0  0  0  0  0  0  0  0  0  0  0  0
  1  2  1  0  0  0  0
  2  3  1  0  0  0  0
  3  4  2  0  0  0  0
  3 46  1  0  0  0  0
  4  5  1  0  0  0  0
  4 21  1  0  0  0  0
  5  6  2  0  0  0  0
  5  7  1  0  0  0  0
  7  8  1  0  0  0  0
  7 18  1  0  0  0  0
  8  9  1  0  0  0  0
  8 10  1  0  0  0  0
  8 11  1  0  0  0  0
 11 12  1  0  0  0  0
 11 13  1  0  0  0  0
 11 14  1  0  0  0  0
 14 15  1  1  0  0  0
 14 16  1  0  0  0  0
 14 18  1  0  0  0  0
 16 17  1  0  0  0  0
 18 19  1  0  0  0  0
 18 20  1  0  0  0  0
 21 22  1  0  0  0  0
 21 23  2  0  0  0  0
 23 24  1  0  0  0  0
 23 45  1  0  0  0  0
 24 25  1  0  0  0  0
 24 42  2  0  0  0  0
 25 26  1  0  0  0  0
 25 27  1  0  0  0  0
 25 28  1  0  0  0  0
 28 29  2  0  0  0  0
 28 40  1  0  0  0  0
 29 30  1  0  0  0  0
 29 31  1  0  0  0  0
 31 32  1  0  0  0  0
 31 33  2  0  0  0  0
 33 34  1  0  0  0  0
 33 35  1  0  0  0  0
 35 36  1  0  0  0  0
 35 40  2  0  0  0  0
 36 37  1  0  0  0  0
 36 38  1  0  0  0  0
 36 39  1  0  0  0  0
 40 41  1  0  0  0  0
 42 43  1  0  0  0  0
 43 44  1  0  0  0  0
 43 45  1  0  0  0  0
 45 46  2  0  0  0  0
 46 47  1  0  0  0  0
M  END
$$$$
