lig_42
 OpenBabel01042520393D

 49 53  0  0  1  0  0  0  0  0999 V2000
    0.2736    2.6936   -1.6915 H   0  0  0  0  0  0  0  0  0  0  0  0
   -0.6003    2.3970   -1.3831 O   0  0  0  0  0  0  0  0  0  0  0  0
   -0.3955    1.4219   -0.3811 C   0  0  2  0  0  0  0  0  0  0  0  0
    0.1951    1.8515    0.4347 H   0  0  0  0  0  0  0  0  0  0  0  0
    0.2820    0.1522   -0.8908 C   0  0  0  0  0  0  0  0  0  0  0  0
   -0.1624   -0.1814   -1.8351 H   0  0  0  0  0  0  0  0  0  0  0  0
    1.3624    0.2513   -1.0142 H   0  0  0  0  0  0  0  0  0  0  0  0
   -0.0699   -0.8082    0.1475 N   0  0  0  0  0  0  0  0  0  0  0  0
    0.5554   -1.9964    0.4889 C   0  0  0  0  0  0  0  0  0  0  0  0
   -0.0566   -2.9172    1.0275 O   0  0  0  0  0  0  0  0  0  0  0  0
    2.0282   -2.1426    0.3140 C   0  0  0  0  0  0  0  0  0  0  0  0
    2.5261   -3.4397    0.0724 C   0  0  0  0  0  0  0  0  0  0  0  0
    1.8432   -4.2677   -0.1003 H   0  0  0  0  0  0  0  0  0  0  0  0
    3.9197   -3.6480    0.0085 C   0  0  0  0  0  0  0  0  0  0  0  0
    4.7652   -2.5508    0.1289 C   0  0  0  0  0  0  0  0  0  0  0  0
    4.3085   -1.2557    0.3746 C   0  0  0  0  0  0  0  0  0  0  0  0
    4.9832   -0.4058    0.3941 H   0  0  0  0  0  0  0  0  0  0  0  0
    2.9306   -1.0921    0.5359 C   0  0  0  0  0  0  0  0  0  0  0  0
    2.5785   -0.1024    0.8031 H   0  0  0  0  0  0  0  0  0  0  0  0
    6.0319   -3.0551    0.0088 N   0  0  0  0  0  0  0  0  0  0  0  0
    6.9027   -2.5380   -0.0178 H   0  0  0  0  0  0  0  0  0  0  0  0
    6.0862   -4.3892   -0.0855 N   0  0  0  0  0  0  0  0  0  0  0  0
    4.7969   -4.7682   -0.1001 C   0  0  0  0  0  0  0  0  0  0  0  0
    4.4430   -6.2191   -0.1030 C   0  0  0  0  0  0  0  0  0  0  0  0
    5.1978   -6.8116    0.4291 H   0  0  0  0  0  0  0  0  0  0  0  0
    3.4927   -6.3904    0.4156 H   0  0  0  0  0  0  0  0  0  0  0  0
    4.3623   -6.6550   -1.5440 C   0  0  0  0  0  0  0  0  0  0  0  0
    3.1314   -6.6949   -2.2139 C   0  0  0  0  0  0  0  0  0  0  0  0
    2.2320   -6.3555   -1.7053 H   0  0  0  0  0  0  0  0  0  0  0  0
    3.0618   -7.1298   -3.5362 C   0  0  0  0  0  0  0  0  0  0  0  0
    4.2181   -7.5316   -4.2043 C   0  0  0  0  0  0  0  0  0  0  0  0
    5.4577   -7.4973   -3.5589 C   0  0  0  0  0  0  0  0  0  0  0  0
    6.3731   -7.7880   -4.0638 H   0  0  0  0  0  0  0  0  0  0  0  0
    5.5208   -7.0514   -2.2301 C   0  0  0  0  0  0  0  0  0  0  0  0
    6.4966   -6.9980   -1.7501 H   0  0  0  0  0  0  0  0  0  0  0  0
    3.8068   -7.8255   -5.4807 N   0  0  0  0  0  0  0  0  0  0  0  0
    4.6569   -8.1660   -6.5960 C   0  0  0  0  0  0  0  0  0  0  0  0
    5.2678   -7.2916   -6.8365 H   0  0  0  0  0  0  0  0  0  0  0  0
    5.2886   -9.0114   -6.3128 H   0  0  0  0  0  0  0  0  0  0  0  0
    4.0419   -8.4360   -7.4594 H   0  0  0  0  0  0  0  0  0  0  0  0
    2.4763   -7.6968   -5.6763 N   0  0  0  0  0  0  0  0  0  0  0  0
    2.0321   -7.2748   -4.4879 C   0  0  0  0  0  0  0  0  0  0  0  0
    0.9736   -7.0758   -4.3700 H   0  0  0  0  0  0  0  0  0  0  0  0
   -1.4314   -0.5445    0.5895 C   0  0  0  0  0  0  0  0  0  0  0  0
   -2.1163   -1.2651    0.1316 H   0  0  0  0  0  0  0  0  0  0  0  0
   -1.4764   -0.6572    1.6784 H   0  0  0  0  0  0  0  0  0  0  0  0
   -1.7269    0.8928    0.1588 C   0  0  0  0  0  0  0  0  0  0  0  0
   -2.1005    1.5079    0.9827 H   0  0  0  0  0  0  0  0  0  0  0  0
   -2.4867    0.9164   -0.6318 H   0  0  0  0  0  0  0  0  0  0  0  0
  1  2  1  0  0  0  0
  2  3  1  0  0  0  0
  3  4  1  6  0  0  0
  3  5  1  0  0  0  0
  3 47  1  0  0  0  0
  5  6  1  0  0  0  0
  5  7  1  0  0  0  0
  5  8  1  0  0  0  0
  8  9  1  0  0  0  0
  8 44  1  0  0  0  0
  9 10  2  0  0  0  0
  9 11  1  0  0  0  0
 11 12  2  0  0  0  0
 11 18  1  0  0  0  0
 12 13  1  0  0  0  0
 12 14  1  0  0  0  0
 14 15  2  0  0  0  0
 14 23  1  0  0  0  0
 15 16  1  0  0  0  0
 15 20  1  0  0  0  0
 16 17  1  0  0  0  0
 16 18  2  0  0  0  0
 18 19  1  0  0  0  0
 20 21  1  0  0  0  0
 20 22  1  0  0  0  0
 22 23  2  0  0  0  0
 23 24  1  0  0  0  0
 24 25  1  0  0  0  0
 24 26  1  0  0  0  0
 24 27  1  0  0  0  0
 27 28  2  0  0  0  0
 27 34  1  0  0  0  0
 28 29  1  0  0  0  0
 28 30  1  0  0  0  0
 30 31  2  0  0  0  0
 30 42  1  0  0  0  0
 31 32  1  0  0  0  0
 31 36  1  0  0  0  0
 32 33  1  0  0  0  0
 32 34  2  0  0  0  0
 34 35  1  0  0  0  0
 36 37  1  0  0  0  0
 36 41  1  0  0  0  0
 37 38  1  0  0  0  0
 37 39  1  0  0  0  0
 37 40  1  0  0  0  0
 41 42  2  0  0  0  0
 42 43  1  0  0  0  0
 44 45  1  0  0  0  0
 44 46  1  0  0  0  0
 44 47  1  0  0  0  0
 47 48  1  0  0  0  0
 47 49  1  0  0  0  0
M  END
$$$$
