lig_28
 OpenBabel01042520393D

 51 55  0  0  0  0  0  0  0  0999 V2000
    5.7851   -9.5489   -5.8364 H   0  0  0  0  0  0  0  0  0  0  0  0
    4.9281   -9.0111   -6.2195 C   0  0  0  0  0  0  0  0  0  0  0  0
    4.5171   -9.2657   -7.4634 N   0  0  0  0  0  0  0  0  0  0  0  0
    3.4461   -8.4657   -7.6072 N   0  0  0  0  0  0  0  0  0  0  0  0
    2.7039   -8.5008   -8.8436 C   0  0  0  0  0  0  0  0  0  0  0  0
    3.4047   -8.3818   -9.6742 H   0  0  0  0  0  0  0  0  0  0  0  0
    2.1957   -9.4665   -8.9079 H   0  0  0  0  0  0  0  0  0  0  0  0
    1.9736   -7.6890   -8.8534 H   0  0  0  0  0  0  0  0  0  0  0  0
    3.1753   -7.7108   -6.5007 C   0  0  0  0  0  0  0  0  0  0  0  0
    2.3456   -7.0187   -6.4799 H   0  0  0  0  0  0  0  0  0  0  0  0
    4.1270   -8.0479   -5.5599 C   0  0  0  0  0  0  0  0  0  0  0  0
    4.2181   -7.5316   -4.2043 C   0  0  0  0  0  0  0  0  0  0  0  0
    3.0618   -7.1298   -3.5362 C   0  0  0  0  0  0  0  0  0  0  0  0
    2.0878   -7.1757   -4.0168 H   0  0  0  0  0  0  0  0  0  0  0  0
    3.1314   -6.6949   -2.2139 C   0  0  0  0  0  0  0  0  0  0  0  0
    2.2203   -6.3968   -1.6975 H   0  0  0  0  0  0  0  0  0  0  0  0
    4.3623   -6.6550   -1.5440 C   0  0  0  0  0  0  0  0  0  0  0  0
    4.4430   -6.2191   -0.1030 C   0  0  0  0  0  0  0  0  0  0  0  0
    3.4882   -6.3520    0.4212 H   0  0  0  0  0  0  0  0  0  0  0  0
    5.1851   -6.8159    0.4411 H   0  0  0  0  0  0  0  0  0  0  0  0
    4.7969   -4.7682   -0.1001 C   0  0  0  0  0  0  0  0  0  0  0  0
    6.0862   -4.3892   -0.0855 N   0  0  0  0  0  0  0  0  0  0  0  0
    6.0319   -3.0551    0.0088 N   0  0  0  0  0  0  0  0  0  0  0  0
    6.9033   -2.5399    0.0140 H   0  0  0  0  0  0  0  0  0  0  0  0
    4.7652   -2.5508    0.1289 C   0  0  0  0  0  0  0  0  0  0  0  0
    3.9197   -3.6480    0.0085 C   0  0  0  0  0  0  0  0  0  0  0  0
    2.5261   -3.4397    0.0724 C   0  0  0  0  0  0  0  0  0  0  0  0
    1.8270   -4.2585   -0.0512 H   0  0  0  0  0  0  0  0  0  0  0  0
    2.0282   -2.1426    0.3140 C   0  0  0  0  0  0  0  0  0  0  0  0
    0.6378   -1.9927    0.3246 N   0  0  0  0  0  0  0  0  0  0  0  0
    0.0318   -0.9201    1.1343 C   0  0  0  0  0  0  0  0  0  0  0  0
    0.2099    0.0555    0.6655 H   0  0  0  0  0  0  0  0  0  0  0  0
    0.4495   -0.9118    2.1473 H   0  0  0  0  0  0  0  0  0  0  0  0
   -1.4855   -1.1725    1.2157 C   0  0  0  0  0  0  0  0  0  0  0  0
   -1.6986   -2.1183    1.7292 H   0  0  0  0  0  0  0  0  0  0  0  0
   -1.9704   -0.3687    1.7774 H   0  0  0  0  0  0  0  0  0  0  0  0
   -2.0826   -1.2104   -0.0940 O   0  0  0  0  0  0  0  0  0  0  0  0
   -1.4823   -2.2496   -0.8891 C   0  0  0  0  0  0  0  0  0  0  0  0
   -1.9547   -2.2273   -1.8761 H   0  0  0  0  0  0  0  0  0  0  0  0
   -1.7060   -3.2209   -0.4313 H   0  0  0  0  0  0  0  0  0  0  0  0
    0.0357   -2.0503   -1.0292 C   0  0  0  0  0  0  0  0  0  0  0  0
    0.2340   -1.1050   -1.5521 H   0  0  0  0  0  0  0  0  0  0  0  0
    0.4487   -2.8676   -1.6309 H   0  0  0  0  0  0  0  0  0  0  0  0
    2.9306   -1.0921    0.5359 C   0  0  0  0  0  0  0  0  0  0  0  0
    2.5679   -0.1064    0.8161 H   0  0  0  0  0  0  0  0  0  0  0  0
    4.3085   -1.2557    0.3746 C   0  0  0  0  0  0  0  0  0  0  0  0
    4.9879   -0.4138    0.4469 H   0  0  0  0  0  0  0  0  0  0  0  0
    5.5208   -7.0514   -2.2301 C   0  0  0  0  0  0  0  0  0  0  0  0
    6.4864   -7.0311   -1.7283 H   0  0  0  0  0  0  0  0  0  0  0  0
    5.4577   -7.4973   -3.5589 C   0  0  0  0  0  0  0  0  0  0  0  0
    6.3795   -7.8050   -4.0467 H   0  0  0  0  0  0  0  0  0  0  0  0
  1  2  1  0  0  0  0
  2  3  2  0  0  0  0
  2 11  1  0  0  0  0
  3  4  1  0  0  0  0
  4  5  1  0  0  0  0
  4  9  1  0  0  0  0
  5  6  1  0  0  0  0
  5  7  1  0  0  0  0
  5  8  1  0  0  0  0
  9 10  1  0  0  0  0
  9 11  2  0  0  0  0
 11 12  1  0  0  0  0
 12 13  2  0  0  0  0
 12 50  1  0  0  0  0
 13 14  1  0  0  0  0
 13 15  1  0  0  0  0
 15 16  1  0  0  0  0
 15 17  2  0  0  0  0
 17 18  1  0  0  0  0
 17 48  1  0  0  0  0
 18 19  1  0  0  0  0
 18 20  1  0  0  0  0
 18 21  1  0  0  0  0
 21 22  2  0  0  0  0
 21 26  1  0  0  0  0
 22 23  1  0  0  0  0
 23 24  1  0  0  0  0
 23 25  1  0  0  0  0
 25 26  2  0  0  0  0
 25 46  1  0  0  0  0
 26 27  1  0  0  0  0
 27 28  1  0  0  0  0
 27 29  2  0  0  0  0
 29 30  1  0  0  0  0
 29 44  1  0  0  0  0
 30 31  1  0  0  0  0
 30 41  1  0  0  0  0
 31 32  1  0  0  0  0
 31 33  1  0  0  0  0
 31 34  1  0  0  0  0
 34 35  1  0  0  0  0
 34 36  1  0  0  0  0
 34 37  1  0  0  0  0
 37 38  1  0  0  0  0
 38 39  1  0  0  0  0
 38 40  1  0  0  0  0
 38 41  1  0  0  0  0
 41 42  1  0  0  0  0
 41 43  1  0  0  0  0
 44 45  1  0  0  0  0
 44 46  2  0  0  0  0
 46 47  1  0  0  0  0
 48 49  1  0  0  0  0
 48 50  2  0  0  0  0
 50 51  1  0  0  0  0
M  END
$$$$
