lig_44
 OpenBabel01042520393D

 46 50  0  0  0  0  0  0  0  0999 V2000
   -0.4910    2.5913    1.5859 H   0  0  0  0  0  0  0  0  0  0  0  0
   -0.9177    1.7372    1.7692 O   0  0  0  0  0  0  0  0  0  0  0  0
   -0.9466    1.0458    0.4996 C   0  0  0  0  0  0  0  0  0  0  0  0
   -1.4998    1.6515   -0.2289 H   0  0  0  0  0  0  0  0  0  0  0  0
    0.4027    0.5491   -0.0470 C   0  0  0  0  0  0  0  0  0  0  0  0
    0.5682    0.8021   -1.0984 H   0  0  0  0  0  0  0  0  0  0  0  0
    1.2744    0.8186    0.5538 H   0  0  0  0  0  0  0  0  0  0  0  0
   -0.0699   -0.8082    0.1475 N   0  0  0  0  0  0  0  0  0  0  0  0
    0.5554   -1.9964    0.4889 C   0  0  0  0  0  0  0  0  0  0  0  0
   -0.0566   -2.9172    1.0275 O   0  0  0  0  0  0  0  0  0  0  0  0
    2.0282   -2.1426    0.3140 C   0  0  0  0  0  0  0  0  0  0  0  0
    2.5261   -3.4397    0.0724 C   0  0  0  0  0  0  0  0  0  0  0  0
    1.8422   -4.2687   -0.0922 H   0  0  0  0  0  0  0  0  0  0  0  0
    3.9197   -3.6480    0.0085 C   0  0  0  0  0  0  0  0  0  0  0  0
    4.7652   -2.5508    0.1289 C   0  0  0  0  0  0  0  0  0  0  0  0
    4.3085   -1.2557    0.3746 C   0  0  0  0  0  0  0  0  0  0  0  0
    4.9843   -0.4071    0.4033 H   0  0  0  0  0  0  0  0  0  0  0  0
    2.9306   -1.0921    0.5359 C   0  0  0  0  0  0  0  0  0  0  0  0
    2.5785   -0.1025    0.8046 H   0  0  0  0  0  0  0  0  0  0  0  0
    6.0319   -3.0551    0.0088 N   0  0  0  0  0  0  0  0  0  0  0  0
    6.9033   -2.5387   -0.0125 H   0  0  0  0  0  0  0  0  0  0  0  0
    6.0862   -4.3892   -0.0855 N   0  0  0  0  0  0  0  0  0  0  0  0
    4.7969   -4.7682   -0.1001 C   0  0  0  0  0  0  0  0  0  0  0  0
    4.4430   -6.2191   -0.1030 C   0  0  0  0  0  0  0  0  0  0  0  0
    5.1978   -6.8121    0.4282 H   0  0  0  0  0  0  0  0  0  0  0  0
    3.4916   -6.3924    0.4126 H   0  0  0  0  0  0  0  0  0  0  0  0
    4.3623   -6.6550   -1.5440 C   0  0  0  0  0  0  0  0  0  0  0  0
    3.1314   -6.6949   -2.2139 C   0  0  0  0  0  0  0  0  0  0  0  0
    2.2324   -6.3624   -1.7012 H   0  0  0  0  0  0  0  0  0  0  0  0
    3.0618   -7.1298   -3.5362 C   0  0  0  0  0  0  0  0  0  0  0  0
    4.2181   -7.5316   -4.2043 C   0  0  0  0  0  0  0  0  0  0  0  0
    5.4577   -7.4973   -3.5589 C   0  0  0  0  0  0  0  0  0  0  0  0
    6.3743   -7.7913   -4.0610 H   0  0  0  0  0  0  0  0  0  0  0  0
    5.5208   -7.0514   -2.2301 C   0  0  0  0  0  0  0  0  0  0  0  0
    6.4959   -7.0024   -1.7482 H   0  0  0  0  0  0  0  0  0  0  0  0
    3.8022   -7.8371   -5.4771 N   0  0  0  0  0  0  0  0  0  0  0  0
    4.6506   -8.2050   -6.5876 C   0  0  0  0  0  0  0  0  0  0  0  0
    5.2511   -7.3326   -6.8579 H   0  0  0  0  0  0  0  0  0  0  0  0
    5.2911   -9.0351   -6.2821 H   0  0  0  0  0  0  0  0  0  0  0  0
    4.0318   -8.5076   -7.4367 H   0  0  0  0  0  0  0  0  0  0  0  0
    2.4742   -7.7060   -5.6730 N   0  0  0  0  0  0  0  0  0  0  0  0
    2.0306   -7.2767   -4.4882 C   0  0  0  0  0  0  0  0  0  0  0  0
    0.9735   -7.0783   -4.3674 H   0  0  0  0  0  0  0  0  0  0  0  0
   -1.4252   -0.4143    0.5143 C   0  0  0  0  0  0  0  0  0  0  0  0
   -1.7552   -0.7832    1.4889 H   0  0  0  0  0  0  0  0  0  0  0  0
   -2.1562   -0.6765   -0.2563 H   0  0  0  0  0  0  0  0  0  0  0  0
  1  2  1  0  0  0  0
  2  3  1  0  0  0  0
  3  4  1  0  0  0  0
  3  5  1  0  0  0  0
  3 44  1  0  0  0  0
  5  6  1  0  0  0  0
  5  7  1  0  0  0  0
  5  8  1  0  0  0  0
  8  9  1  0  0  0  0
  8 44  1  0  0  0  0
  9 10  2  0  0  0  0
  9 11  1  0  0  0  0
 11 12  2  0  0  0  0
 11 18  1  0  0  0  0
 12 13  1  0  0  0  0
 12 14  1  0  0  0  0
 14 15  2  0  0  0  0
 14 23  1  0  0  0  0
 15 16  1  0  0  0  0
 15 20  1  0  0  0  0
 16 17  1  0  0  0  0
 16 18  2  0  0  0  0
 18 19  1  0  0  0  0
 20 21  1  0  0  0  0
 20 22  1  0  0  0  0
 22 23  2  0  0  0  0
 23 24  1  0  0  0  0
 24 25  1  0  0  0  0
 24 26  1  0  0  0  0
 24 27  1  0  0  0  0
 27 28  2  0  0  0  0
 27 34  1  0  0  0  0
 28 29  1  0  0  0  0
 28 30  1  0  0  0  0
 30 31  2  0  0  0  0
 30 42  1  0  0  0  0
 31 32  1  0  0  0  0
 31 36  1  0  0  0  0
 32 33  1  0  0  0  0
 32 34  2  0  0  0  0
 34 35  1  0  0  0  0
 36 37  1  0  0  0  0
 36 41  1  0  0  0  0
 37 38  1  0  0  0  0
 37 39  1  0  0  0  0
 37 40  1  0  0  0  0
 41 42  2  0  0  0  0
 42 43  1  0  0  0  0
 44 45  1  0  0  0  0
 44 46  1  0  0  0  0
M  END
$$$$
