lig_32
 OpenBabel01042520393D

 42 45  0  0  0  0  0  0  0  0999 V2000
    5.7909   -9.5353   -5.8591 H   0  0  0  0  0  0  0  0  0  0  0  0
    4.9241   -9.0011   -6.2289 C   0  0  0  0  0  0  0  0  0  0  0  0
    4.5080   -9.2385   -7.4731 N   0  0  0  0  0  0  0  0  0  0  0  0
    3.4350   -8.4353   -7.6032 N   0  0  0  0  0  0  0  0  0  0  0  0
    2.7060   -8.4244   -8.8468 C   0  0  0  0  0  0  0  0  0  0  0  0
    3.4108   -8.2435   -9.6621 H   0  0  0  0  0  0  0  0  0  0  0  0
    2.2214   -9.3964   -8.9669 H   0  0  0  0  0  0  0  0  0  0  0  0
    1.9553   -7.6307   -8.8214 H   0  0  0  0  0  0  0  0  0  0  0  0
    3.1615   -7.7078   -6.4821 C   0  0  0  0  0  0  0  0  0  0  0  0
    2.3321   -7.0152   -6.4418 H   0  0  0  0  0  0  0  0  0  0  0  0
    4.1217   -8.0500   -5.5535 C   0  0  0  0  0  0  0  0  0  0  0  0
    4.2181   -7.5316   -4.2043 C   0  0  0  0  0  0  0  0  0  0  0  0
    3.0618   -7.1298   -3.5362 C   0  0  0  0  0  0  0  0  0  0  0  0
    2.0866   -7.2201   -4.0068 H   0  0  0  0  0  0  0  0  0  0  0  0
    3.1314   -6.6949   -2.2139 C   0  0  0  0  0  0  0  0  0  0  0  0
    2.2088   -6.4727   -1.6813 H   0  0  0  0  0  0  0  0  0  0  0  0
    4.3623   -6.6550   -1.5440 C   0  0  0  0  0  0  0  0  0  0  0  0
    4.4430   -6.2191   -0.1030 C   0  0  0  0  0  0  0  0  0  0  0  0
    3.4882   -6.3463    0.4270 H   0  0  0  0  0  0  0  0  0  0  0  0
    5.1968   -6.7595    0.4808 H   0  0  0  0  0  0  0  0  0  0  0  0
    4.7969   -4.7682   -0.1001 C   0  0  0  0  0  0  0  0  0  0  0  0
    6.0862   -4.3892   -0.0855 N   0  0  0  0  0  0  0  0  0  0  0  0
    6.0319   -3.0551    0.0088 N   0  0  0  0  0  0  0  0  0  0  0  0
    6.8968   -2.5309    0.0638 H   0  0  0  0  0  0  0  0  0  0  0  0
    4.7652   -2.5508    0.1289 C   0  0  0  0  0  0  0  0  0  0  0  0
    3.9197   -3.6480    0.0085 C   0  0  0  0  0  0  0  0  0  0  0  0
    2.5261   -3.4397    0.0724 C   0  0  0  0  0  0  0  0  0  0  0  0
    1.8649   -4.2915   -0.0305 H   0  0  0  0  0  0  0  0  0  0  0  0
    2.0282   -2.1426    0.3140 C   0  0  0  0  0  0  0  0  0  0  0  0
    0.5554   -1.9964    0.4889 C   0  0  0  0  0  0  0  0  0  0  0  0
   -0.0566   -2.9172    1.0275 O   0  0  0  0  0  0  0  0  0  0  0  0
   -0.0971   -0.8424    0.1242 N   0  0  0  0  0  0  0  0  0  0  0  0
    0.3765    0.0149   -0.1068 H   0  0  0  0  0  0  0  0  0  0  0  0
   -1.0661   -0.7895    0.3969 H   0  0  0  0  0  0  0  0  0  0  0  0
    2.9306   -1.0921    0.5359 C   0  0  0  0  0  0  0  0  0  0  0  0
    2.5487   -0.1190    0.8408 H   0  0  0  0  0  0  0  0  0  0  0  0
    4.3085   -1.2557    0.3746 C   0  0  0  0  0  0  0  0  0  0  0  0
    4.9821   -0.4095    0.4788 H   0  0  0  0  0  0  0  0  0  0  0  0
    5.5208   -7.0514   -2.2301 C   0  0  0  0  0  0  0  0  0  0  0  0
    6.4756   -7.0961   -1.7126 H   0  0  0  0  0  0  0  0  0  0  0  0
    5.4577   -7.4973   -3.5589 C   0  0  0  0  0  0  0  0  0  0  0  0
    6.3683   -7.8478   -4.0428 H   0  0  0  0  0  0  0  0  0  0  0  0
  1  2  1  0  0  0  0
  2  3  2  0  0  0  0
  2 11  1  0  0  0  0
  3  4  1  0  0  0  0
  4  5  1  0  0  0  0
  4  9  1  0  0  0  0
  5  6  1  0  0  0  0
  5  7  1  0  0  0  0
  5  8  1  0  0  0  0
  9 10  1  0  0  0  0
  9 11  2  0  0  0  0
 11 12  1  0  0  0  0
 12 13  2  0  0  0  0
 12 41  1  0  0  0  0
 13 14  1  0  0  0  0
 13 15  1  0  0  0  0
 15 16  1  0  0  0  0
 15 17  2  0  0  0  0
 17 18  1  0  0  0  0
 17 39  1  0  0  0  0
 18 19  1  0  0  0  0
 18 20  1  0  0  0  0
 18 21  1  0  0  0  0
 21 22  2  0  0  0  0
 21 26  1  0  0  0  0
 22 23  1  0  0  0  0
 23 24  1  0  0  0  0
 23 25  1  0  0  0  0
 25 26  2  0  0  0  0
 25 37  1  0  0  0  0
 26 27  1  0  0  0  0
 27 28  1  0  0  0  0
 27 29  2  0  0  0  0
 29 30  1  0  0  0  0
 29 35  1  0  0  0  0
 30 31  2  0  0  0  0
 30 32  1  0  0  0  0
 32 33  1  0  0  0  0
 32 34  1  0  0  0  0
 35 36  1  0  0  0  0
 35 37  2  0  0  0  0
 37 38  1  0  0  0  0
 39 40  1  0  0  0  0
 39 41  2  0  0  0  0
 41 42  1  0  0  0  0
M  END
$$$$
