R1_4_R2_1
     RDKit          3D

 44 47  0  0  0  0  0  0  0  0999 V2000
   22.7799   -4.1754   -1.4620 C   0  0  0  0  0  0  0  0  0  0  0  0
   24.0974   -4.1795    0.5369 C   0  0  0  0  0  0  0  0  0  0  0  0
   24.0163   -3.9599   -0.8414 C   0  0  0  0  0  0  0  0  0  0  0  0
   22.9846   -4.5983    1.2627 C   0  0  0  0  0  0  0  0  0  0  0  0
   21.6437   -4.5929   -0.7646 C   0  0  0  0  0  0  0  0  0  0  0  0
   21.7556   -4.8081    0.6255 C   0  0  0  0  0  0  0  0  0  0  0  0
   20.5672   -4.7095   -1.7093 C   0  0  0  0  0  0  0  0  0  0  0  0
   21.0960   -4.3736   -2.9421 C   0  0  0  0  0  0  0  0  0  0  0  0
   22.4122   -4.0453   -2.7778 N   0  0  0  0  0  0  0  0  0  0  0  0
   20.4324   -4.3388   -4.3561 C   0  0  0  0  0  0  0  0  0  0  0  0
   21.2085   -3.9549   -5.2835 O   0  5  0  0  0  0  0  0  0  0  0  0
   19.2227   -4.6957   -4.4529 O   0  0  0  0  0  0  0  0  0  0  0  0
   25.0446   -4.0200    1.0462 H   0  0  0  0  0  0  0  0  0  0  0  0
   24.8791   -3.6302   -1.4105 H   0  0  0  0  0  0  0  0  0  0  0  0
   23.0678   -4.7610    2.3338 H   0  0  0  0  0  0  0  0  0  0  0  0
   20.8894   -5.1257    1.1983 H   0  0  0  0  0  0  0  0  0  0  0  0
   22.9906   -3.7488   -3.5552 H   0  0  0  0  0  0  0  0  0  0  0  0
   19.1592   -5.1231   -1.4183 C   0  0  0  0  0  0  0  0  0  0  0  0
   18.9190   -6.5996   -1.7403 C   0  0  0  0  0  0  0  0  0  0  0  0
   17.4483   -6.9760   -1.5917 C   0  0  0  0  0  0  0  0  0  0  0  0
   16.9850   -6.8125   -0.2477 O   0  0  0  0  0  0  0  0  0  0  0  0
   17.3933   -9.7401    2.6929 C   0  0  0  0  0  0  0  0  0  0  0  0
   17.8503   -9.0212    0.4195 C   0  0  0  0  0  0  0  0  0  0  0  0
   17.9722   -9.9891    1.4340 C   0  0  0  0  0  0  0  0  0  0  0  0
   17.1676   -7.8284    0.6467 C   0  0  0  0  0  0  0  0  0  0  0  0
   16.7046   -8.5393    2.9381 C   0  0  0  0  0  0  0  0  0  0  0  0
   16.6041   -7.5960    1.9033 C   0  0  0  0  0  0  0  0  0  0  0  0
   17.4670  -10.4729    3.4915 H   0  0  0  0  0  0  0  0  0  0  0  0
   16.2485   -8.3357    3.9030 H   0  0  0  0  0  0  0  0  0  0  0  0
   16.0719   -6.6603    2.0608 H   0  0  0  0  0  0  0  0  0  0  0  0
   18.6638  -11.1870    1.1769 C   0  0  0  0  0  0  0  0  0  0  0  0
   19.2309  -11.4350   -0.0747 C   0  0  0  0  0  0  0  0  0  0  0  0
   18.4366   -9.2927   -0.8464 C   0  0  0  0  0  0  0  0  0  0  0  0
   19.1152  -10.4896   -1.0872 C   0  0  0  0  0  0  0  0  0  0  0  0
   19.7510  -12.3702   -0.2621 H   0  0  0  0  0  0  0  0  0  0  0  0
   18.3423   -8.5688   -1.6533 H   0  0  0  0  0  0  0  0  0  0  0  0
   19.5383  -10.6825   -2.0699 H   0  0  0  0  0  0  0  0  0  0  0  0
   18.7573  -11.9421    1.9528 H   0  0  0  0  0  0  0  0  0  0  0  0
   18.8874   -4.8977   -0.3842 H   0  0  0  0  0  0  0  0  0  0  0  0
   18.4882   -4.5085   -2.0316 H   0  0  0  0  0  0  0  0  0  0  0  0
   19.2528   -6.7991   -2.7682 H   0  0  0  0  0  0  0  0  0  0  0  0
   19.5435   -7.2390   -1.1017 H   0  0  0  0  0  0  0  0  0  0  0  0
   17.3377   -8.0363   -1.8449 H   0  0  0  0  0  0  0  0  0  0  0  0
   16.8650   -6.3853   -2.3103 H   0  0  0  0  0  0  0  0  0  0  0  0
  7 18  1  0
  3  1  2  0
  1  5  1  0
  5  6  2  0
  6  4  1  0
  4  2  2  0
  2  3  1  0
  1  9  1  0
  9  8  1  0
  8  7  2  0
  7  5  1  0
  8 10  1  0
 10 11  1  0
 10 12  2  0
  2 13  1  0
  3 14  1  0
  4 15  1  0
  6 16  1  0
  9 17  1  0
 25 21  1  0
 24 22  2  0
 22 26  1  0
 26 27  2  0
 27 25  1  0
 25 23  2  0
 23 24  1  0
 22 28  1  0
 26 29  1  0
 27 30  1  0
 23 33  1  0
 33 34  2  0
 34 32  1  0
 32 31  2  0
 31 24  1  0
 32 35  1  0
 33 36  1  0
 34 37  1  0
 31 38  1  0
 18 19  1  0
 19 20  1  0
 20 21  1  0
 18 39  1  0
 18 40  1  0
 19 41  1  0
 19 42  1  0
 20 43  1  0
 20 44  1  0
M  CHG  1  11  -1
M  END
$$$$
