R1_3_R2_3
     RDKit          3D

 40 42  0  0  0  0  0  0  0  0999 V2000
   22.7799   -4.1754   -1.4620 C   0  0  0  0  0  0  0  0  0  0  0  0
   24.0974   -4.1795    0.5369 C   0  0  0  0  0  0  0  0  0  0  0  0
   24.0163   -3.9599   -0.8414 C   0  0  0  0  0  0  0  0  0  0  0  0
   22.9846   -4.5983    1.2627 C   0  0  0  0  0  0  0  0  0  0  0  0
   21.6437   -4.5929   -0.7646 C   0  0  0  0  0  0  0  0  0  0  0  0
   21.7556   -4.8081    0.6255 C   0  0  0  0  0  0  0  0  0  0  0  0
   20.5672   -4.7095   -1.7093 C   0  0  0  0  0  0  0  0  0  0  0  0
   21.0960   -4.3736   -2.9421 C   0  0  0  0  0  0  0  0  0  0  0  0
   22.4122   -4.0453   -2.7778 S   0  0  0  0  0  0  0  0  0  0  0  0
   20.4324   -4.3388   -4.3561 C   0  0  0  0  0  0  0  0  0  0  0  0
   21.2085   -3.9549   -5.2835 O   0  5  0  0  0  0  0  0  0  0  0  0
   19.2227   -4.6957   -4.4529 O   0  0  0  0  0  0  0  0  0  0  0  0
   25.0502   -4.0202    1.0335 H   0  0  0  0  0  0  0  0  0  0  0  0
   24.8923   -3.6339   -1.3968 H   0  0  0  0  0  0  0  0  0  0  0  0
   23.0694   -4.7667    2.3325 H   0  0  0  0  0  0  0  0  0  0  0  0
   20.4450   -5.3472    1.5908 Cl  0  0  0  0  0  0  0  0  0  0  0  0
   19.1592   -5.1231   -1.4183 C   0  0  0  0  0  0  0  0  0  0  0  0
   18.9190   -6.5996   -1.7403 C   0  0  0  0  0  0  0  0  0  0  0  0
   17.4483   -6.9760   -1.5917 C   0  0  0  0  0  0  0  0  0  0  0  0
   16.9850   -6.8125   -0.2477 O   0  0  0  0  0  0  0  0  0  0  0  0
   17.3933   -9.7401    2.6929 C   0  0  0  0  0  0  0  0  0  0  0  0
   16.6041   -7.5960    1.9033 C   0  0  0  0  0  0  0  0  0  0  0  0
   16.7046   -8.5393    2.9381 C   0  0  0  0  0  0  0  0  0  0  0  0
   17.1676   -7.8284    0.6467 C   0  0  0  0  0  0  0  0  0  0  0  0
   17.9722   -9.9891    1.4340 C   0  0  0  0  0  0  0  0  0  0  0  0
   17.8503   -9.0212    0.4195 C   0  0  0  0  0  0  0  0  0  0  0  0
   17.5322  -10.9248    3.9549 Cl  0  0  0  0  0  0  0  0  0  0  0  0
   16.0719   -6.6706    2.0979 H   0  0  0  0  0  0  0  0  0  0  0  0
   18.7256  -11.2580    1.1402 C   0  0  0  0  0  0  0  0  0  0  0  0
   18.3009   -9.2011   -0.5570 H   0  0  0  0  0  0  0  0  0  0  0  0
   16.2485   -8.3278    3.9006 H   0  0  0  0  0  0  0  0  0  0  0  0
   18.0686  -12.1261    1.2551 H   0  0  0  0  0  0  0  0  0  0  0  0
   19.1103  -11.2710    0.1148 H   0  0  0  0  0  0  0  0  0  0  0  0
   19.5835  -11.3559    1.8131 H   0  0  0  0  0  0  0  0  0  0  0  0
   18.4552   -4.4927   -1.9733 H   0  0  0  0  0  0  0  0  0  0  0  0
   18.9271   -4.9019   -0.3719 H   0  0  0  0  0  0  0  0  0  0  0  0
   19.5106   -7.2542   -1.0891 H   0  0  0  0  0  0  0  0  0  0  0  0
   19.2503   -6.8152   -2.7617 H   0  0  0  0  0  0  0  0  0  0  0  0
   16.8314   -6.4226   -2.3128 H   0  0  0  0  0  0  0  0  0  0  0  0
   17.3187   -8.0374   -1.8328 H   0  0  0  0  0  0  0  0  0  0  0  0
  7 17  1  0
  3  1  2  0
  1  5  1  0
  5  6  2  0
  6  4  1  0
  4  2  2  0
  2  3  1  0
  1  9  1  0
  9  8  1  0
  8  7  2  0
  7  5  1  0
  8 10  1  0
 10 11  1  0
 10 12  2  0
  2 13  1  0
  3 14  1  0
  4 15  1  0
  6 16  1  0
 24 20  1  0
 23 21  2  0
 21 25  1  0
 25 26  2  0
 26 24  1  0
 24 22  2  0
 22 23  1  0
 21 27  1  0
 22 28  1  0
 25 29  1  0
 26 30  1  0
 23 31  1  0
 29 32  1  0
 29 33  1  0
 29 34  1  0
 17 18  1  0
 18 19  1  0
 19 20  1  0
 17 35  1  0
 17 36  1  0
 18 37  1  0
 18 38  1  0
 19 39  1  0
 19 40  1  0
M  CHG  1  11  -1
M  END
$$$$
