R1_2_R2_1
     RDKit          3D

 38 40  0  0  0  0  0  0  0  0999 V2000
   22.7799   -4.1754   -1.4620 C   0  0  0  0  0  0  0  0  0  0  0  0
   24.0974   -4.1795    0.5369 C   0  0  0  0  0  0  0  0  0  0  0  0
   24.0163   -3.9599   -0.8414 C   0  0  0  0  0  0  0  0  0  0  0  0
   22.9846   -4.5983    1.2627 C   0  0  0  0  0  0  0  0  0  0  0  0
   21.6437   -4.5929   -0.7646 C   0  0  0  0  0  0  0  0  0  0  0  0
   21.7556   -4.8081    0.6255 C   0  0  0  0  0  0  0  0  0  0  0  0
   20.5672   -4.7095   -1.7093 C   0  0  0  0  0  0  0  0  0  0  0  0
   21.0960   -4.3736   -2.9421 C   0  0  0  0  0  0  0  0  0  0  0  0
   22.4122   -4.0453   -2.7778 N   0  0  0  0  0  0  0  0  0  0  0  0
   20.4324   -4.3388   -4.3561 C   0  0  0  0  0  0  0  0  0  0  0  0
   21.2085   -3.9549   -5.2835 O   0  5  0  0  0  0  0  0  0  0  0  0
   19.2227   -4.6957   -4.4529 O   0  0  0  0  0  0  0  0  0  0  0  0
   25.0440   -4.0209    1.0464 H   0  0  0  0  0  0  0  0  0  0  0  0
   24.8799   -3.6341   -1.4106 H   0  0  0  0  0  0  0  0  0  0  0  0
   23.0665   -4.7644    2.3330 H   0  0  0  0  0  0  0  0  0  0  0  0
   20.8913   -5.1310    1.1969 H   0  0  0  0  0  0  0  0  0  0  0  0
   22.9877   -3.7406   -3.5525 H   0  0  0  0  0  0  0  0  0  0  0  0
   19.1592   -5.1231   -1.4183 C   0  0  0  0  0  0  0  0  0  0  0  0
   18.9190   -6.5996   -1.7403 C   0  0  0  0  0  0  0  0  0  0  0  0
   17.4483   -6.9760   -1.5917 C   0  0  0  0  0  0  0  0  0  0  0  0
   16.9850   -6.8125   -0.2477 O   0  0  0  0  0  0  0  0  0  0  0  0
   17.3933   -9.7401    2.6929 C   0  0  0  0  0  0  0  0  0  0  0  0
   17.8503   -9.0212    0.4195 C   0  0  0  0  0  0  0  0  0  0  0  0
   17.9722   -9.9891    1.4340 C   0  0  0  0  0  0  0  0  0  0  0  0
   17.1676   -7.8284    0.6467 C   0  0  0  0  0  0  0  0  0  0  0  0
   16.7046   -8.5393    2.9381 C   0  0  0  0  0  0  0  0  0  0  0  0
   16.6041   -7.5960    1.9033 C   0  0  0  0  0  0  0  0  0  0  0  0
   17.4862  -10.4869    3.4757 H   0  0  0  0  0  0  0  0  0  0  0  0
   18.3062   -9.2488   -0.5403 H   0  0  0  0  0  0  0  0  0  0  0  0
   16.2632   -8.3506    3.9119 H   0  0  0  0  0  0  0  0  0  0  0  0
   16.0811   -6.6588    2.0740 H   0  0  0  0  0  0  0  0  0  0  0  0
   18.5075  -10.9170    1.2499 H   0  0  0  0  0  0  0  0  0  0  0  0
   18.4904   -4.5119   -2.0387 H   0  0  0  0  0  0  0  0  0  0  0  0
   18.8786   -4.8957   -0.3856 H   0  0  0  0  0  0  0  0  0  0  0  0
   19.2391   -6.7977   -2.7715 H   0  0  0  0  0  0  0  0  0  0  0  0
   19.5612   -7.2322   -1.1164 H   0  0  0  0  0  0  0  0  0  0  0  0
   17.3513   -8.0433   -1.8225 H   0  0  0  0  0  0  0  0  0  0  0  0
   16.8000   -6.4545   -2.3018 H   0  0  0  0  0  0  0  0  0  0  0  0
  7 18  1  0
  3  1  2  0
  1  5  1  0
  5  6  2  0
  6  4  1  0
  4  2  2  0
  2  3  1  0
  1  9  1  0
  9  8  1  0
  8  7  2  0
  7  5  1  0
  8 10  1  0
 10 11  1  0
 10 12  2  0
  2 13  1  0
  3 14  1  0
  4 15  1  0
  6 16  1  0
  9 17  1  0
 25 21  1  0
 24 22  2  0
 22 26  1  0
 26 27  2  0
 27 25  1  0
 25 23  2  0
 23 24  1  0
 22 28  1  0
 23 29  1  0
 26 30  1  0
 27 31  1  0
 24 32  1  0
 18 19  1  0
 19 20  1  0
 20 21  1  0
 18 33  1  0
 18 34  1  0
 19 35  1  0
 19 36  1  0
 20 37  1  0
 20 38  1  0
M  CHG  1  11  -1
M  END
$$$$
