R1_4_R2_6
     RDKit          3D

 43 46  0  0  0  0  0  0  0  0999 V2000
   22.7799   -4.1754   -1.4620 C   0  0  0  0  0  0  0  0  0  0  0  0
   24.0974   -4.1795    0.5369 C   0  0  0  0  0  0  0  0  0  0  0  0
   24.0163   -3.9599   -0.8414 C   0  0  0  0  0  0  0  0  0  0  0  0
   22.9846   -4.5983    1.2627 C   0  0  0  0  0  0  0  0  0  0  0  0
   21.6437   -4.5929   -0.7646 C   0  0  0  0  0  0  0  0  0  0  0  0
   21.7556   -4.8081    0.6255 C   0  0  0  0  0  0  0  0  0  0  0  0
   20.5672   -4.7095   -1.7093 C   0  0  0  0  0  0  0  0  0  0  0  0
   21.0960   -4.3736   -2.9421 C   0  0  0  0  0  0  0  0  0  0  0  0
   22.4122   -4.0453   -2.7778 S   0  0  0  0  0  0  0  0  0  0  0  0
   20.4324   -4.3388   -4.3561 C   0  0  0  0  0  0  0  0  0  0  0  0
   21.2085   -3.9549   -5.2835 O   0  5  0  0  0  0  0  0  0  0  0  0
   19.2227   -4.6957   -4.4529 O   0  0  0  0  0  0  0  0  0  0  0  0
   25.0465   -4.0170    1.0395 H   0  0  0  0  0  0  0  0  0  0  0  0
   24.8869   -3.6329   -1.4016 H   0  0  0  0  0  0  0  0  0  0  0  0
   23.0612   -4.7632    2.3334 H   0  0  0  0  0  0  0  0  0  0  0  0
   20.9016   -5.1314    1.2133 H   0  0  0  0  0  0  0  0  0  0  0  0
   19.1592   -5.1231   -1.4183 C   0  0  0  0  0  0  0  0  0  0  0  0
   18.9190   -6.5996   -1.7403 C   0  0  0  0  0  0  0  0  0  0  0  0
   17.4483   -6.9760   -1.5917 C   0  0  0  0  0  0  0  0  0  0  0  0
   16.9850   -6.8125   -0.2477 O   0  0  0  0  0  0  0  0  0  0  0  0
   17.3933   -9.7401    2.6929 C   0  0  0  0  0  0  0  0  0  0  0  0
   17.8503   -9.0212    0.4195 C   0  0  0  0  0  0  0  0  0  0  0  0
   17.9722   -9.9891    1.4340 C   0  0  0  0  0  0  0  0  0  0  0  0
   17.1676   -7.8284    0.6467 C   0  0  0  0  0  0  0  0  0  0  0  0
   16.7046   -8.5393    2.9381 C   0  0  0  0  0  0  0  0  0  0  0  0
   16.6041   -7.5960    1.9033 C   0  0  0  0  0  0  0  0  0  0  0  0
   17.4633  -10.4771    3.4891 H   0  0  0  0  0  0  0  0  0  0  0  0
   16.2524   -8.3366    3.9042 H   0  0  0  0  0  0  0  0  0  0  0  0
   16.0827   -6.6574    2.0634 H   0  0  0  0  0  0  0  0  0  0  0  0
   18.6623  -11.1879    1.1795 C   0  0  0  0  0  0  0  0  0  0  0  0
   19.2291  -11.4380   -0.0715 C   0  0  0  0  0  0  0  0  0  0  0  0
   18.4224   -9.3049   -0.8483 C   0  0  0  0  0  0  0  0  0  0  0  0
   19.1076  -10.4963   -1.0858 C   0  0  0  0  0  0  0  0  0  0  0  0
   19.7655  -12.3637   -0.2565 H   0  0  0  0  0  0  0  0  0  0  0  0
   18.3410   -8.5872   -1.6615 H   0  0  0  0  0  0  0  0  0  0  0  0
   19.5468  -10.6672   -2.0671 H   0  0  0  0  0  0  0  0  0  0  0  0
   18.7650  -11.9386    1.9586 H   0  0  0  0  0  0  0  0  0  0  0  0
   18.8614   -4.8793   -0.3974 H   0  0  0  0  0  0  0  0  0  0  0  0
   18.4941   -4.5019   -2.0348 H   0  0  0  0  0  0  0  0  0  0  0  0
   19.5310   -7.2586   -1.1130 H   0  0  0  0  0  0  0  0  0  0  0  0
   19.2181   -6.7852   -2.7797 H   0  0  0  0  0  0  0  0  0  0  0  0
   16.8382   -6.3903   -2.2842 H   0  0  0  0  0  0  0  0  0  0  0  0
   17.3740   -8.0326   -1.8827 H   0  0  0  0  0  0  0  0  0  0  0  0
  7 17  1  0
  3  1  2  0
  1  5  1  0
  5  6  2  0
  6  4  1  0
  4  2  2  0
  2  3  1  0
  1  9  1  0
  9  8  1  0
  8  7  2  0
  7  5  1  0
  8 10  1  0
 10 11  1  0
 10 12  2  0
  2 13  1  0
  3 14  1  0
  4 15  1  0
  6 16  1  0
 24 20  1  0
 23 21  2  0
 21 25  1  0
 25 26  2  0
 26 24  1  0
 24 22  2  0
 22 23  1  0
 21 27  1  0
 25 28  1  0
 26 29  1  0
 22 32  1  0
 32 33  2  0
 33 31  1  0
 31 30  2  0
 30 23  1  0
 31 34  1  0
 32 35  1  0
 33 36  1  0
 30 37  1  0
 17 18  1  0
 18 19  1  0
 19 20  1  0
 17 38  1  0
 17 39  1  0
 18 40  1  0
 18 41  1  0
 19 42  1  0
 19 43  1  0
M  CHG  1  11  -1
M  END
$$$$
