lig_35
 OpenBabel01042522333D

 50 54  0  0  0  0  0  0  0  0999 V2000
    0.7564   -0.2764    0.0173 H   0  0  0  0  0  0  0  0  0  0  0  0
    1.8301   -0.1398   -0.0204 C   0  0  0  0  0  0  0  0  0  0  0  0
    2.5755   -1.2653   -0.0428 N   0  0  0  0  0  0  0  0  0  0  0  0
    3.9151   -1.1078   -0.0629 C   0  0  0  0  0  0  0  0  0  0  0  0
    4.6973   -2.2561   -0.0817 C   0  0  0  0  0  0  0  0  0  0  0  0
    4.1813   -3.2116   -0.0554 H   0  0  0  0  0  0  0  0  0  0  0  0
    6.0859   -2.1962   -0.0711 C   0  0  0  0  0  0  0  0  0  0  0  0
    6.8419   -3.3860   -0.0559 N   0  0  0  0  0  0  0  0  0  0  0  0
    6.6407   -3.9173   -0.9148 H   0  0  0  0  0  0  0  0  0  0  0  0
    8.1560   -3.5866    0.4150 C   0  0  0  0  0  0  0  0  0  0  0  0
    9.0159   -4.4707   -0.2484 C   0  0  0  0  0  0  0  0  0  0  0  0
    8.5038   -5.4099   -1.6642 S   0  0  0  0  0  0  0  0  0  0  0  0
    7.0944   -5.1431   -1.8958 O   0  0  0  0  0  0  0  0  0  0  0  0
    9.4851   -5.1655   -2.7040 O   0  0  0  0  0  0  0  0  0  0  0  0
    8.6467   -7.1045   -1.1568 C   0  0  0  0  0  0  0  0  0  0  0  0
    9.6981   -7.3895   -1.1116 H   0  0  0  0  0  0  0  0  0  0  0  0
    8.1612   -7.2535   -0.1912 H   0  0  0  0  0  0  0  0  0  0  0  0
    8.1314   -7.7162   -1.9029 H   0  0  0  0  0  0  0  0  0  0  0  0
   10.3375   -4.6383    0.1796 C   0  0  0  0  0  0  0  0  0  0  0  0
   10.9886   -5.3478   -0.3207 H   0  0  0  0  0  0  0  0  0  0  0  0
   10.8146   -3.9259    1.2783 C   0  0  0  0  0  0  0  0  0  0  0  0
   11.8220   -3.9987    1.6783 H   0  0  0  0  0  0  0  0  0  0  0  0
    9.9671   -3.0588    1.9598 N   0  0  0  0  0  0  0  0  0  0  0  0
    8.6473   -2.8997    1.5344 C   0  0  0  0  0  0  0  0  0  0  0  0
    8.0629   -2.2290    2.1618 H   0  0  0  0  0  0  0  0  0  0  0  0
    6.6798   -0.9361   -0.0430 C   0  0  0  0  0  0  0  0  0  0  0  0
    7.7664   -0.8866    0.0144 H   0  0  0  0  0  0  0  0  0  0  0  0
    5.9350    0.2647   -0.0558 C   0  0  0  0  0  0  0  0  0  0  0  0
    6.6764    1.5635   -0.0862 C   0  0  0  0  0  0  0  0  0  0  0  0
    7.8865    1.6753   -0.8059 C   0  0  0  0  0  0  0  0  0  0  0  0
    8.2894    0.8243   -1.3447 H   0  0  0  0  0  0  0  0  0  0  0  0
    8.5827    2.8964   -0.8253 C   0  0  0  0  0  0  0  0  0  0  0  0
    8.1017    4.0305   -0.1747 C   0  0  0  0  0  0  0  0  0  0  0  0
    6.8991    3.9337    0.5435 C   0  0  0  0  0  0  0  0  0  0  0  0
    6.4898    4.7923    1.0665 H   0  0  0  0  0  0  0  0  0  0  0  0
    6.2206    2.7048    0.5944 C   0  0  0  0  0  0  0  0  0  0  0  0
    5.3084    2.6697    1.1847 H   0  0  0  0  0  0  0  0  0  0  0  0
    9.0223    5.0830   -0.4271 C   0  0  0  0  0  0  0  0  0  0  0  0
    8.9440    6.1018   -0.0724 H   0  0  0  0  0  0  0  0  0  0  0  0
   10.0446    4.5718   -1.1950 C   0  0  0  0  0  0  0  0  0  0  0  0
   10.9385    5.0463   -1.5811 H   0  0  0  0  0  0  0  0  0  0  0  0
    9.7734    3.2492   -1.4242 N   0  0  0  0  0  0  0  0  0  0  0  0
   10.6170    2.3464   -2.1746 C   0  0  0  0  0  0  0  0  0  0  0  0
   10.9686    1.5643   -1.4957 H   0  0  0  0  0  0  0  0  0  0  0  0
   10.0261    1.9149   -2.9868 H   0  0  0  0  0  0  0  0  0  0  0  0
   11.4679    2.8946   -2.5829 H   0  0  0  0  0  0  0  0  0  0  0  0
    4.5262    0.1764   -0.0583 C   0  0  0  0  0  0  0  0  0  0  0  0
    3.7352    1.2809   -0.0621 N   0  0  0  0  0  0  0  0  0  0  0  0
    2.3996    1.1091   -0.0330 C   0  0  0  0  0  0  0  0  0  0  0  0
    1.8024    2.0127   -0.0088 H   0  0  0  0  0  0  0  0  0  0  0  0
  1  2  1  0  0  0  0
  2  3  2  0  0  0  0
  2 49  1  0  0  0  0
  3  4  1  0  0  0  0
  4  5  2  0  0  0  0
  4 47  1  0  0  0  0
  5  6  1  0  0  0  0
  5  7  1  0  0  0  0
  7  8  1  0  0  0  0
  7 26  2  0  0  0  0
  8  9  1  0  0  0  0
  8 10  1  0  0  0  0
 10 11  2  0  0  0  0
 10 24  1  0  0  0  0
 11 12  1  0  0  0  0
 11 19  1  0  0  0  0
 12 13  2  0  0  0  0
 12 14  2  0  0  0  0
 12 15  1  0  0  0  0
 15 16  1  0  0  0  0
 15 17  1  0  0  0  0
 15 18  1  0  0  0  0
 19 20  1  0  0  0  0
 19 21  2  0  0  0  0
 21 22  1  0  0  0  0
 21 23  1  0  0  0  0
 23 24  2  0  0  0  0
 24 25  1  0  0  0  0
 26 27  1  0  0  0  0
 26 28  1  0  0  0  0
 28 29  1  0  0  0  0
 28 47  2  0  0  0  0
 29 30  2  0  0  0  0
 29 36  1  0  0  0  0
 30 31  1  0  0  0  0
 30 32  1  0  0  0  0
 32 33  2  0  0  0  0
 32 42  1  0  0  0  0
 33 34  1  0  0  0  0
 33 38  1  0  0  0  0
 34 35  1  0  0  0  0
 34 36  2  0  0  0  0
 36 37  1  0  0  0  0
 38 39  1  0  0  0  0
 38 40  2  0  0  0  0
 40 41  1  0  0  0  0
 40 42  1  0  0  0  0
 42 43  1  0  0  0  0
 43 44  1  0  0  0  0
 43 45  1  0  0  0  0
 43 46  1  0  0  0  0
 47 48  1  0  0  0  0
 48 49  2  0  0  0  0
 49 50  1  0  0  0  0
M  END
$$$$
