lig_64
 OpenBabel01042522333D

 45 49  0  0  0  0  0  0  0  0999 V2000
   10.8805    5.1787   -1.5170 H   0  0  0  0  0  0  0  0  0  0  0  0
   10.0446    4.5718   -1.1950 C   0  0  0  0  0  0  0  0  0  0  0  0
    9.0223    5.0830   -0.4271 N   0  0  0  0  0  0  0  0  0  0  0  0
    8.1017    4.0305   -0.1747 C   0  0  0  0  0  0  0  0  0  0  0  0
    6.8991    3.9337    0.5435 C   0  0  0  0  0  0  0  0  0  0  0  0
    6.4934    4.8091    1.0403 H   0  0  0  0  0  0  0  0  0  0  0  0
    6.2206    2.7048    0.5944 C   0  0  0  0  0  0  0  0  0  0  0  0
    5.3037    2.6760    1.1799 H   0  0  0  0  0  0  0  0  0  0  0  0
    6.6764    1.5635   -0.0862 C   0  0  0  0  0  0  0  0  0  0  0  0
    5.9350    0.2647   -0.0558 C   0  0  0  0  0  0  0  0  0  0  0  0
    6.6798   -0.9361   -0.0430 C   0  0  0  0  0  0  0  0  0  0  0  0
    7.7676   -0.8966   -0.0198 H   0  0  0  0  0  0  0  0  0  0  0  0
    6.0859   -2.1962   -0.0711 C   0  0  0  0  0  0  0  0  0  0  0  0
    6.8419   -3.3860   -0.0559 N   0  0  0  0  0  0  0  0  0  0  0  0
    6.7107   -3.8147   -0.9870 H   0  0  0  0  0  0  0  0  0  0  0  0
    8.1560   -3.5866    0.4150 C   0  0  0  0  0  0  0  0  0  0  0  0
    9.0159   -4.4707   -0.2484 C   0  0  0  0  0  0  0  0  0  0  0  0
    8.5038   -5.4099   -1.6642 S   0  0  0  0  0  0  0  0  0  0  0  0
    7.0944   -5.1431   -1.8958 O   0  0  0  0  0  0  0  0  0  0  0  0
    9.4851   -5.1655   -2.7040 O   0  0  0  0  0  0  0  0  0  0  0  0
    8.6467   -7.1045   -1.1568 C   0  0  0  0  0  0  0  0  0  0  0  0
    9.7004   -7.3839   -1.1066 H   0  0  0  0  0  0  0  0  0  0  0  0
    8.1573   -7.2420   -0.1908 H   0  0  0  0  0  0  0  0  0  0  0  0
    8.1464   -7.7177   -1.9108 H   0  0  0  0  0  0  0  0  0  0  0  0
   10.3375   -4.6383    0.1796 C   0  0  0  0  0  0  0  0  0  0  0  0
   11.0039   -5.2999   -0.3635 H   0  0  0  0  0  0  0  0  0  0  0  0
   10.8146   -3.9259    1.2783 C   0  0  0  0  0  0  0  0  0  0  0  0
   11.8288   -3.9780    1.6619 H   0  0  0  0  0  0  0  0  0  0  0  0
    9.9671   -3.0588    1.9598 N   0  0  0  0  0  0  0  0  0  0  0  0
    8.6473   -2.8997    1.5344 C   0  0  0  0  0  0  0  0  0  0  0  0
    8.0636   -2.2195    2.1497 H   0  0  0  0  0  0  0  0  0  0  0  0
    4.6973   -2.2561   -0.0817 C   0  0  0  0  0  0  0  0  0  0  0  0
    4.1915   -3.2192   -0.0689 H   0  0  0  0  0  0  0  0  0  0  0  0
    3.9151   -1.1078   -0.0629 C   0  0  0  0  0  0  0  0  0  0  0  0
    4.5262    0.1764   -0.0583 C   0  0  0  0  0  0  0  0  0  0  0  0
    3.7352    1.2809   -0.0621 N   0  0  0  0  0  0  0  0  0  0  0  0
    2.3996    1.1091   -0.0330 C   0  0  0  0  0  0  0  0  0  0  0  0
    1.8005    2.0111   -0.0168 H   0  0  0  0  0  0  0  0  0  0  0  0
    1.8301   -0.1398   -0.0204 C   0  0  0  0  0  0  0  0  0  0  0  0
    0.7601   -0.2717    0.0154 H   0  0  0  0  0  0  0  0  0  0  0  0
    2.5755   -1.2653   -0.0428 N   0  0  0  0  0  0  0  0  0  0  0  0
    7.8865    1.6753   -0.8059 C   0  0  0  0  0  0  0  0  0  0  0  0
    8.2927    0.8393   -1.3682 H   0  0  0  0  0  0  0  0  0  0  0  0
    8.5827    2.8964   -0.8253 C   0  0  0  0  0  0  0  0  0  0  0  0
    9.7734    3.2492   -1.4242 S   0  0  0  0  0  0  0  0  0  0  0  0
  1  2  1  0  0  0  0
  2  3  2  0  0  0  0
  2 45  1  0  0  0  0
  3  4  1  0  0  0  0
  4  5  2  0  0  0  0
  4 44  1  0  0  0  0
  5  6  1  0  0  0  0
  5  7  1  0  0  0  0
  7  8  1  0  0  0  0
  7  9  2  0  0  0  0
  9 10  1  0  0  0  0
  9 42  1  0  0  0  0
 10 11  2  0  0  0  0
 10 35  1  0  0  0  0
 11 12  1  0  0  0  0
 11 13  1  0  0  0  0
 13 14  1  0  0  0  0
 13 32  2  0  0  0  0
 14 15  1  0  0  0  0
 14 16  1  0  0  0  0
 16 17  2  0  0  0  0
 16 30  1  0  0  0  0
 17 18  1  0  0  0  0
 17 25  1  0  0  0  0
 18 19  2  0  0  0  0
 18 20  2  0  0  0  0
 18 21  1  0  0  0  0
 21 22  1  0  0  0  0
 21 23  1  0  0  0  0
 21 24  1  0  0  0  0
 25 26  1  0  0  0  0
 25 27  2  0  0  0  0
 27 28  1  0  0  0  0
 27 29  1  0  0  0  0
 29 30  2  0  0  0  0
 30 31  1  0  0  0  0
 32 33  1  0  0  0  0
 32 34  1  0  0  0  0
 34 35  2  0  0  0  0
 34 41  1  0  0  0  0
 35 36  1  0  0  0  0
 36 37  2  0  0  0  0
 37 38  1  0  0  0  0
 37 39  1  0  0  0  0
 39 40  1  0  0  0  0
 39 41  2  0  0  0  0
 42 43  1  0  0  0  0
 42 44  2  0  0  0  0
 44 45  1  0  0  0  0
M  END
$$$$
