lig_30
 OpenBabel01042522333D

 48 52  0  0  0  0  0  0  0  0999 V2000
    0.7554   -0.2755    0.0064 H   0  0  0  0  0  0  0  0  0  0  0  0
    1.8301   -0.1398   -0.0204 C   0  0  0  0  0  0  0  0  0  0  0  0
    2.5755   -1.2653   -0.0428 N   0  0  0  0  0  0  0  0  0  0  0  0
    3.9151   -1.1078   -0.0629 C   0  0  0  0  0  0  0  0  0  0  0  0
    4.6973   -2.2561   -0.0817 C   0  0  0  0  0  0  0  0  0  0  0  0
    4.1899   -3.2179   -0.1257 H   0  0  0  0  0  0  0  0  0  0  0  0
    6.0859   -2.1962   -0.0711 C   0  0  0  0  0  0  0  0  0  0  0  0
    6.8419   -3.3860   -0.0559 N   0  0  0  0  0  0  0  0  0  0  0  0
    6.3705   -4.2050   -0.4204 H   0  0  0  0  0  0  0  0  0  0  0  0
    8.1560   -3.5866    0.4150 C   0  0  0  0  0  0  0  0  0  0  0  0
    9.0159   -4.4707   -0.2484 C   0  0  0  0  0  0  0  0  0  0  0  0
    8.5038   -5.4099   -1.6642 O   0  0  0  0  0  0  0  0  0  0  0  0
    8.6467   -7.1045   -1.1568 C   0  0  0  0  0  0  0  0  0  0  0  0
    9.6859   -7.3627   -0.9251 H   0  0  0  0  0  0  0  0  0  0  0  0
    7.9873   -7.3233   -0.3095 H   0  0  0  0  0  0  0  0  0  0  0  0
    8.3258   -7.7321   -1.9937 H   0  0  0  0  0  0  0  0  0  0  0  0
   10.3375   -4.6383    0.1796 N   0  0  0  0  0  0  0  0  0  0  0  0
   10.8146   -3.9259    1.2783 C   0  0  0  0  0  0  0  0  0  0  0  0
   11.8545   -4.1107    1.5308 H   0  0  0  0  0  0  0  0  0  0  0  0
    9.9671   -3.0588    1.9598 C   0  0  0  0  0  0  0  0  0  0  0  0
   10.3238   -2.4967    2.8154 H   0  0  0  0  0  0  0  0  0  0  0  0
    8.6473   -2.8997    1.5344 C   0  0  0  0  0  0  0  0  0  0  0  0
    7.9979   -2.2107    2.0668 H   0  0  0  0  0  0  0  0  0  0  0  0
    6.6798   -0.9361   -0.0430 C   0  0  0  0  0  0  0  0  0  0  0  0
    7.7653   -0.8821   -0.0094 H   0  0  0  0  0  0  0  0  0  0  0  0
    5.9350    0.2647   -0.0558 C   0  0  0  0  0  0  0  0  0  0  0  0
    6.6764    1.5635   -0.0862 C   0  0  0  0  0  0  0  0  0  0  0  0
    6.2206    2.7048    0.5944 C   0  0  0  0  0  0  0  0  0  0  0  0
    5.3092    2.6684    1.1888 H   0  0  0  0  0  0  0  0  0  0  0  0
    6.8991    3.9337    0.5435 C   0  0  0  0  0  0  0  0  0  0  0  0
    6.4882    4.8037    1.0453 H   0  0  0  0  0  0  0  0  0  0  0  0
    8.1017    4.0305   -0.1747 C   0  0  0  0  0  0  0  0  0  0  0  0
    9.0223    5.0830   -0.4271 C   0  0  0  0  0  0  0  0  0  0  0  0
    8.9376    6.1059   -0.0893 H   0  0  0  0  0  0  0  0  0  0  0  0
   10.0446    4.5718   -1.1950 C   0  0  0  0  0  0  0  0  0  0  0  0
   10.9311    5.0447   -1.5933 H   0  0  0  0  0  0  0  0  0  0  0  0
    9.7734    3.2492   -1.4242 N   0  0  0  0  0  0  0  0  0  0  0  0
   10.6170    2.3464   -2.1746 C   0  0  0  0  0  0  0  0  0  0  0  0
   10.9391    1.5423   -1.5076 H   0  0  0  0  0  0  0  0  0  0  0  0
   10.0413    1.9466   -3.0134 H   0  0  0  0  0  0  0  0  0  0  0  0
   11.4892    2.8873   -2.5502 H   0  0  0  0  0  0  0  0  0  0  0  0
    8.5827    2.8964   -0.8253 C   0  0  0  0  0  0  0  0  0  0  0  0
    7.8865    1.6753   -0.8059 C   0  0  0  0  0  0  0  0  0  0  0  0
    8.2822    0.8275   -1.3560 H   0  0  0  0  0  0  0  0  0  0  0  0
    4.5262    0.1764   -0.0583 C   0  0  0  0  0  0  0  0  0  0  0  0
    3.7352    1.2809   -0.0621 N   0  0  0  0  0  0  0  0  0  0  0  0
    2.3996    1.1091   -0.0330 C   0  0  0  0  0  0  0  0  0  0  0  0
    1.8019    2.0131   -0.0248 H   0  0  0  0  0  0  0  0  0  0  0  0
  1  2  1  0  0  0  0
  2  3  2  0  0  0  0
  2 47  1  0  0  0  0
  3  4  1  0  0  0  0
  4  5  2  0  0  0  0
  4 45  1  0  0  0  0
  5  6  1  0  0  0  0
  5  7  1  0  0  0  0
  7  8  1  0  0  0  0
  7 24  2  0  0  0  0
  8  9  1  0  0  0  0
  8 10  1  0  0  0  0
 10 11  2  0  0  0  0
 10 22  1  0  0  0  0
 11 12  1  0  0  0  0
 11 17  1  0  0  0  0
 12 13  1  0  0  0  0
 13 14  1  0  0  0  0
 13 15  1  0  0  0  0
 13 16  1  0  0  0  0
 17 18  2  0  0  0  0
 18 19  1  0  0  0  0
 18 20  1  0  0  0  0
 20 21  1  0  0  0  0
 20 22  2  0  0  0  0
 22 23  1  0  0  0  0
 24 25  1  0  0  0  0
 24 26  1  0  0  0  0
 26 27  1  0  0  0  0
 26 45  2  0  0  0  0
 27 28  2  0  0  0  0
 27 43  1  0  0  0  0
 28 29  1  0  0  0  0
 28 30  1  0  0  0  0
 30 31  1  0  0  0  0
 30 32  2  0  0  0  0
 32 33  1  0  0  0  0
 32 42  1  0  0  0  0
 33 34  1  0  0  0  0
 33 35  2  0  0  0  0
 35 36  1  0  0  0  0
 35 37  1  0  0  0  0
 37 38  1  0  0  0  0
 37 42  1  0  0  0  0
 38 39  1  0  0  0  0
 38 40  1  0  0  0  0
 38 41  1  0  0  0  0
 42 43  2  0  0  0  0
 43 44  1  0  0  0  0
 45 46  1  0  0  0  0
 46 47  2  0  0  0  0
 47 48  1  0  0  0  0
M  END
$$$$
