lig_41
 OpenBabel01042522333D

 47 50  0  0  0  0  0  0  0  0999 V2000
    0.7556   -0.2760    0.0125 H   0  0  0  0  0  0  0  0  0  0  0  0
    1.8301   -0.1398   -0.0204 C   0  0  0  0  0  0  0  0  0  0  0  0
    2.5755   -1.2653   -0.0428 N   0  0  0  0  0  0  0  0  0  0  0  0
    3.9151   -1.1078   -0.0629 C   0  0  0  0  0  0  0  0  0  0  0  0
    4.5262    0.1764   -0.0583 C   0  0  0  0  0  0  0  0  0  0  0  0
    3.7352    1.2809   -0.0621 N   0  0  0  0  0  0  0  0  0  0  0  0
    2.3996    1.1091   -0.0330 C   0  0  0  0  0  0  0  0  0  0  0  0
    1.8021    2.0129   -0.0109 H   0  0  0  0  0  0  0  0  0  0  0  0
    5.9350    0.2647   -0.0558 C   0  0  0  0  0  0  0  0  0  0  0  0
    6.6764    1.5635   -0.0862 C   0  0  0  0  0  0  0  0  0  0  0  0
    6.2206    2.7048    0.5944 C   0  0  0  0  0  0  0  0  0  0  0  0
    5.3094    2.6537    1.1895 H   0  0  0  0  0  0  0  0  0  0  0  0
    6.8991    3.9337    0.5435 C   0  0  0  0  0  0  0  0  0  0  0  0
    6.5092    4.8057    1.0638 H   0  0  0  0  0  0  0  0  0  0  0  0
    8.1017    4.0305   -0.1747 C   0  0  0  0  0  0  0  0  0  0  0  0
    8.6290    4.9785   -0.2097 H   0  0  0  0  0  0  0  0  0  0  0  0
    8.5827    2.8964   -0.8253 C   0  0  0  0  0  0  0  0  0  0  0  0
    9.7115    2.8381   -1.5858 O   0  0  0  0  0  0  0  0  0  0  0  0
   10.8409    3.6115   -1.2013 C   0  0  0  0  0  0  0  0  0  0  0  0
   10.7196    4.2268   -0.0062 F   0  0  0  0  0  0  0  0  0  0  0  0
   11.9212    2.7994   -1.1382 F   0  0  0  0  0  0  0  0  0  0  0  0
   11.0780    4.5475   -2.1468 F   0  0  0  0  0  0  0  0  0  0  0  0
    7.8865    1.6753   -0.8059 C   0  0  0  0  0  0  0  0  0  0  0  0
    8.3267    0.8380   -1.3445 H   0  0  0  0  0  0  0  0  0  0  0  0
    6.6798   -0.9361   -0.0430 C   0  0  0  0  0  0  0  0  0  0  0  0
    7.7674   -0.8878   -0.0158 H   0  0  0  0  0  0  0  0  0  0  0  0
    6.0859   -2.1962   -0.0711 C   0  0  0  0  0  0  0  0  0  0  0  0
    6.8419   -3.3860   -0.0559 N   0  0  0  0  0  0  0  0  0  0  0  0
    6.6827   -3.8618   -0.9577 H   0  0  0  0  0  0  0  0  0  0  0  0
    8.1560   -3.5866    0.4150 C   0  0  0  0  0  0  0  0  0  0  0  0
    8.6473   -2.8997    1.5344 C   0  0  0  0  0  0  0  0  0  0  0  0
    8.0687   -2.2189    2.1545 H   0  0  0  0  0  0  0  0  0  0  0  0
    9.9671   -3.0588    1.9598 N   0  0  0  0  0  0  0  0  0  0  0  0
   10.8146   -3.9259    1.2783 C   0  0  0  0  0  0  0  0  0  0  0  0
   11.8282   -3.9862    1.6658 H   0  0  0  0  0  0  0  0  0  0  0  0
   10.3375   -4.6383    0.1796 C   0  0  0  0  0  0  0  0  0  0  0  0
   11.0025   -5.3063   -0.3576 H   0  0  0  0  0  0  0  0  0  0  0  0
    9.0159   -4.4707   -0.2484 C   0  0  0  0  0  0  0  0  0  0  0  0
    8.5038   -5.4099   -1.6642 S   0  0  0  0  0  0  0  0  0  0  0  0
    7.0944   -5.1431   -1.8958 O   0  0  0  0  0  0  0  0  0  0  0  0
    9.4851   -5.1655   -2.7040 O   0  0  0  0  0  0  0  0  0  0  0  0
    8.6467   -7.1045   -1.1568 C   0  0  0  0  0  0  0  0  0  0  0  0
    9.7004   -7.3593   -1.0489 H   0  0  0  0  0  0  0  0  0  0  0  0
    8.1098   -7.2431   -0.2164 H   0  0  0  0  0  0  0  0  0  0  0  0
    8.1985   -7.7225   -1.9332 H   0  0  0  0  0  0  0  0  0  0  0  0
    4.6973   -2.2561   -0.0817 C   0  0  0  0  0  0  0  0  0  0  0  0
    4.1890   -3.2174   -0.0778 H   0  0  0  0  0  0  0  0  0  0  0  0
  1  2  1  0  0  0  0
  2  3  2  0  0  0  0
  2  7  1  0  0  0  0
  3  4  1  0  0  0  0
  4  5  2  0  0  0  0
  4 46  1  0  0  0  0
  5  6  1  0  0  0  0
  5  9  1  0  0  0  0
  6  7  2  0  0  0  0
  7  8  1  0  0  0  0
  9 10  1  0  0  0  0
  9 25  2  0  0  0  0
 10 11  2  0  0  0  0
 10 23  1  0  0  0  0
 11 12  1  0  0  0  0
 11 13  1  0  0  0  0
 13 14  1  0  0  0  0
 13 15  2  0  0  0  0
 15 16  1  0  0  0  0
 15 17  1  0  0  0  0
 17 18  1  0  0  0  0
 17 23  2  0  0  0  0
 18 19  1  0  0  0  0
 19 20  1  0  0  0  0
 19 21  1  0  0  0  0
 19 22  1  0  0  0  0
 23 24  1  0  0  0  0
 25 26  1  0  0  0  0
 25 27  1  0  0  0  0
 27 28  1  0  0  0  0
 27 46  2  0  0  0  0
 28 29  1  0  0  0  0
 28 30  1  0  0  0  0
 30 31  2  0  0  0  0
 30 38  1  0  0  0  0
 31 32  1  0  0  0  0
 31 33  1  0  0  0  0
 33 34  2  0  0  0  0
 34 35  1  0  0  0  0
 34 36  1  0  0  0  0
 36 37  1  0  0  0  0
 36 38  2  0  0  0  0
 38 39  1  0  0  0  0
 39 40  2  0  0  0  0
 39 41  2  0  0  0  0
 39 42  1  0  0  0  0
 42 43  1  0  0  0  0
 42 44  1  0  0  0  0
 42 45  1  0  0  0  0
 46 47  1  0  0  0  0
M  END
$$$$
