lig_63
 OpenBabel01042522333D

 44 48  0  0  0  0  0  0  0  0999 V2000
    0.7560   -0.2761    0.0155 H   0  0  0  0  0  0  0  0  0  0  0  0
    1.8301   -0.1398   -0.0204 C   0  0  0  0  0  0  0  0  0  0  0  0
    2.5755   -1.2653   -0.0428 N   0  0  0  0  0  0  0  0  0  0  0  0
    3.9151   -1.1078   -0.0629 C   0  0  0  0  0  0  0  0  0  0  0  0
    4.5262    0.1764   -0.0583 C   0  0  0  0  0  0  0  0  0  0  0  0
    3.7352    1.2809   -0.0621 N   0  0  0  0  0  0  0  0  0  0  0  0
    2.3996    1.1091   -0.0330 C   0  0  0  0  0  0  0  0  0  0  0  0
    1.8020    2.0126   -0.0062 H   0  0  0  0  0  0  0  0  0  0  0  0
    5.9350    0.2647   -0.0558 C   0  0  0  0  0  0  0  0  0  0  0  0
    6.6764    1.5635   -0.0862 C   0  0  0  0  0  0  0  0  0  0  0  0
    7.8865    1.6753   -0.8059 C   0  0  0  0  0  0  0  0  0  0  0  0
    8.2951    0.8317   -1.3492 H   0  0  0  0  0  0  0  0  0  0  0  0
    8.5827    2.8964   -0.8253 C   0  0  0  0  0  0  0  0  0  0  0  0
    9.7734    3.2492   -1.4242 N   0  0  0  0  0  0  0  0  0  0  0  0
   10.0446    4.5718   -1.1950 S   0  0  0  0  0  0  0  0  0  0  0  0
    9.0223    5.0830   -0.4271 N   0  0  0  0  0  0  0  0  0  0  0  0
    8.1017    4.0305   -0.1747 C   0  0  0  0  0  0  0  0  0  0  0  0
    6.8991    3.9337    0.5435 C   0  0  0  0  0  0  0  0  0  0  0  0
    6.4802    4.7846    1.0664 H   0  0  0  0  0  0  0  0  0  0  0  0
    6.2206    2.7048    0.5944 C   0  0  0  0  0  0  0  0  0  0  0  0
    5.3124    2.6857    1.2001 H   0  0  0  0  0  0  0  0  0  0  0  0
    6.6798   -0.9361   -0.0430 C   0  0  0  0  0  0  0  0  0  0  0  0
    7.7667   -0.8909    0.0082 H   0  0  0  0  0  0  0  0  0  0  0  0
    6.0859   -2.1962   -0.0711 C   0  0  0  0  0  0  0  0  0  0  0  0
    6.8419   -3.3860   -0.0559 N   0  0  0  0  0  0  0  0  0  0  0  0
    6.7122   -3.8188   -0.9850 H   0  0  0  0  0  0  0  0  0  0  0  0
    8.1560   -3.5866    0.4150 C   0  0  0  0  0  0  0  0  0  0  0  0
    9.0159   -4.4707   -0.2484 C   0  0  0  0  0  0  0  0  0  0  0  0
    8.5038   -5.4099   -1.6642 S   0  0  0  0  0  0  0  0  0  0  0  0
    7.0944   -5.1431   -1.8958 O   0  0  0  0  0  0  0  0  0  0  0  0
    9.4851   -5.1655   -2.7040 O   0  0  0  0  0  0  0  0  0  0  0  0
    8.6467   -7.1045   -1.1568 C   0  0  0  0  0  0  0  0  0  0  0  0
    9.7018   -7.3725   -1.0770 H   0  0  0  0  0  0  0  0  0  0  0  0
    8.1359   -7.2455   -0.2009 H   0  0  0  0  0  0  0  0  0  0  0  0
    8.1709   -7.7216   -1.9214 H   0  0  0  0  0  0  0  0  0  0  0  0
   10.3375   -4.6383    0.1796 C   0  0  0  0  0  0  0  0  0  0  0  0
   11.0038   -5.3018   -0.3624 H   0  0  0  0  0  0  0  0  0  0  0  0
   10.8146   -3.9259    1.2783 C   0  0  0  0  0  0  0  0  0  0  0  0
   11.8300   -3.9808    1.6614 H   0  0  0  0  0  0  0  0  0  0  0  0
    9.9671   -3.0588    1.9598 N   0  0  0  0  0  0  0  0  0  0  0  0
    8.6473   -2.8997    1.5344 C   0  0  0  0  0  0  0  0  0  0  0  0
    8.0652   -2.2225    2.1533 H   0  0  0  0  0  0  0  0  0  0  0  0
    4.6973   -2.2561   -0.0817 C   0  0  0  0  0  0  0  0  0  0  0  0
    4.1908   -3.2188   -0.0615 H   0  0  0  0  0  0  0  0  0  0  0  0
  1  2  1  0  0  0  0
  2  3  2  0  0  0  0
  2  7  1  0  0  0  0
  3  4  1  0  0  0  0
  4  5  2  0  0  0  0
  4 43  1  0  0  0  0
  5  6  1  0  0  0  0
  5  9  1  0  0  0  0
  6  7  2  0  0  0  0
  7  8  1  0  0  0  0
  9 10  1  0  0  0  0
  9 22  2  0  0  0  0
 10 11  2  0  0  0  0
 10 20  1  0  0  0  0
 11 12  1  0  0  0  0
 11 13  1  0  0  0  0
 13 14  2  0  0  0  0
 13 17  1  0  0  0  0
 14 15  1  0  0  0  0
 15 16  1  0  0  0  0
 16 17  2  0  0  0  0
 17 18  1  0  0  0  0
 18 19  1  0  0  0  0
 18 20  2  0  0  0  0
 20 21  1  0  0  0  0
 22 23  1  0  0  0  0
 22 24  1  0  0  0  0
 24 25  1  0  0  0  0
 24 43  2  0  0  0  0
 25 26  1  0  0  0  0
 25 27  1  0  0  0  0
 27 28  2  0  0  0  0
 27 41  1  0  0  0  0
 28 29  1  0  0  0  0
 28 36  1  0  0  0  0
 29 30  2  0  0  0  0
 29 31  2  0  0  0  0
 29 32  1  0  0  0  0
 32 33  1  0  0  0  0
 32 34  1  0  0  0  0
 32 35  1  0  0  0  0
 36 37  1  0  0  0  0
 36 38  2  0  0  0  0
 38 39  1  0  0  0  0
 38 40  1  0  0  0  0
 40 41  2  0  0  0  0
 41 42  1  0  0  0  0
 43 44  1  0  0  0  0
M  END
$$$$
