lig_49396360
 OpenBabel01042522203D

 57 61  0  0  0  0  0  0  0  0999 V2000
    7.1856   -8.2843   -3.8144 C   0  0  0  0  0  0  0  0  0  0  0  0
    8.1786   -7.5397   -2.9387 C   0  0  0  0  0  0  0  0  0  0  0  0
    7.5294   -6.3422   -2.2490 C   0  0  0  0  0  0  0  0  0  0  0  0
    8.5336   -5.6580   -1.4955 O   0  0  0  0  0  0  0  0  0  0  0  0
    8.1050   -4.6572   -0.6722 C   0  0  0  0  0  0  0  0  0  0  0  0
    6.8109   -4.1207   -0.7170 C   0  0  0  0  0  0  0  0  0  0  0  0
    6.4249   -3.0962    0.1671 C   0  0  0  0  0  0  0  0  0  0  0  0
    7.3581   -2.6733    1.1316 C   0  0  0  0  0  0  0  0  0  0  0  0
    8.6368   -3.1037    1.2249 N   0  0  0  0  0  0  0  0  0  0  0  0
    9.0363   -4.1695    0.2427 C   0  0  0  0  0  0  0  0  0  0  0  0
    5.0677   -2.5392    0.1528 C   0  0  0  0  0  0  0  0  0  0  0  0
    3.9831   -3.2959    0.2393 N   0  0  0  0  0  0  0  0  0  0  0  0
    2.8688   -2.5061    0.2049 N   0  0  0  0  0  0  0  0  0  0  0  0
    3.2821   -1.2682    0.1162 C   0  0  0  0  0  0  0  0  0  0  0  0
    4.6565   -1.2081    0.0776 N   0  0  0  0  0  0  0  0  0  0  0  0
    5.2913    0.0550    0.0087 C   0  0  0  0  0  0  0  0  0  0  0  0
    6.6722    0.2373   -0.0626 C   0  0  0  0  0  0  0  0  0  0  0  0
    7.2286    1.5296    0.0015 C   0  0  0  0  0  0  0  0  0  0  0  0
    6.3770    2.6354    0.0901 C   0  0  0  0  0  0  0  0  0  0  0  0
    4.9937    2.4572    0.0910 C   0  0  0  0  0  0  0  0  0  0  0  0
    4.4369    1.1774    0.0561 C   0  0  0  0  0  0  0  0  0  0  0  0
    3.0269    1.0895    0.0637 N   0  0  0  0  0  0  0  0  0  0  0  0
    2.4767   -0.0864    0.0743 C   0  0  0  0  0  0  0  0  0  0  0  0
    0.9771   -0.1948    0.0715 C   0  0  0  0  0  0  0  0  0  0  0  0
    8.7346    1.7203    0.0233 C   0  0  0  0  0  0  0  0  0  0  0  0
    9.4169    0.9074   -0.9889 N   0  0  0  0  0  0  0  0  0  0  0  0
    9.1443    1.3924   -2.3596 C   0  0  0  0  0  0  0  0  0  0  0  0
    9.8547    0.4986   -3.3853 C   0  0  0  0  0  0  0  0  0  0  0  0
   11.2725    0.4925   -3.1674 O   0  0  0  0  0  0  0  0  0  0  0  0
   11.5683    0.0308   -1.8422 C   0  0  0  0  0  0  0  0  0  0  0  0
   10.8782    0.9021   -0.7793 C   0  0  0  0  0  0  0  0  0  0  0  0
    7.6703   -9.1345   -4.3044 H   0  0  0  0  0  0  0  0  0  0  0  0
    6.7831   -7.6282   -4.5929 H   0  0  0  0  0  0  0  0  0  0  0  0
    6.3482   -8.6657   -3.2212 H   0  0  0  0  0  0  0  0  0  0  0  0
    9.0295   -7.2031   -3.5426 H   0  0  0  0  0  0  0  0  0  0  0  0
    8.5933   -8.2198   -2.1847 H   0  0  0  0  0  0  0  0  0  0  0  0
    6.7302   -6.6997   -1.5873 H   0  0  0  0  0  0  0  0  0  0  0  0
    7.1154   -5.6655   -3.0046 H   0  0  0  0  0  0  0  0  0  0  0  0
    6.0746   -4.4933   -1.4248 H   0  0  0  0  0  0  0  0  0  0  0  0
    7.0857   -1.9242    1.8720 H   0  0  0  0  0  0  0  0  0  0  0  0
   10.0467   -4.5704    0.2546 H   0  0  0  0  0  0  0  0  0  0  0  0
    7.3591   -0.5891   -0.1944 H   0  0  0  0  0  0  0  0  0  0  0  0
    6.7807    3.6447    0.1427 H   0  0  0  0  0  0  0  0  0  0  0  0
    4.3377    3.3239    0.1363 H   0  0  0  0  0  0  0  0  0  0  0  0
    0.6379   -1.2335    0.0468 H   0  0  0  0  0  0  0  0  0  0  0  0
    0.5865    0.3253   -0.8083 H   0  0  0  0  0  0  0  0  0  0  0  0
    0.5779    0.2887    0.9685 H   0  0  0  0  0  0  0  0  0  0  0  0
    9.0649    1.4187    1.0260 H   0  0  0  0  0  0  0  0  0  0  0  0
    8.9929    2.7814   -0.0882 H   0  0  0  0  0  0  0  0  0  0  0  0
    9.4981    2.4261   -2.4695 H   0  0  0  0  0  0  0  0  0  0  0  0
    8.0710    1.3780   -2.5756 H   0  0  0  0  0  0  0  0  0  0  0  0
    9.6741    0.8779   -4.3957 H   0  0  0  0  0  0  0  0  0  0  0  0
    9.4751   -0.5300   -3.3419 H   0  0  0  0  0  0  0  0  0  0  0  0
   12.6540    0.0758   -1.7121 H   0  0  0  0  0  0  0  0  0  0  0  0
   11.2654   -1.0193   -1.7494 H   0  0  0  0  0  0  0  0  0  0  0  0
   11.2721    1.9253   -0.8379 H   0  0  0  0  0  0  0  0  0  0  0  0
   11.1181    0.5021    0.2128 H   0  0  0  0  0  0  0  0  0  0  0  0
  1  2  1  0  0  0  0
  1 32  1  0  0  0  0
  1 33  1  0  0  0  0
  1 34  1  0  0  0  0
  2  3  1  0  0  0  0
  2 35  1  0  0  0  0
  2 36  1  0  0  0  0
  3  4  1  0  0  0  0
  3 37  1  0  0  0  0
  3 38  1  0  0  0  0
  4  5  1  0  0  0  0
  5  6  1  0  0  0  0
  5 10  2  0  0  0  0
  6  7  2  0  0  0  0
  6 39  1  0  0  0  0
  7  8  1  0  0  0  0
  7 11  1  0  0  0  0
  8  9  2  0  0  0  0
  8 40  1  0  0  0  0
  9 10  1  0  0  0  0
 10 41  1  0  0  0  0
 11 12  2  0  0  0  0
 11 15  1  0  0  0  0
 12 13  1  0  0  0  0
 13 14  2  0  0  0  0
 14 15  1  0  0  0  0
 14 23  1  0  0  0  0
 15 16  1  0  0  0  0
 16 17  1  0  0  0  0
 16 21  2  0  0  0  0
 17 18  2  0  0  0  0
 17 42  1  0  0  0  0
 18 19  1  0  0  0  0
 18 25  1  0  0  0  0
 19 20  2  0  0  0  0
 19 43  1  0  0  0  0
 20 21  1  0  0  0  0
 20 44  1  0  0  0  0
 21 22  1  0  0  0  0
 22 23  2  0  0  0  0
 23 24  1  0  0  0  0
 24 45  1  0  0  0  0
 24 46  1  0  0  0  0
 24 47  1  0  0  0  0
 25 26  1  0  0  0  0
 25 48  1  0  0  0  0
 25 49  1  0  0  0  0
 26 27  1  0  0  0  0
 26 31  1  0  0  0  0
 27 28  1  0  0  0  0
 27 50  1  0  0  0  0
 27 51  1  0  0  0  0
 28 29  1  0  0  0  0
 28 52  1  0  0  0  0
 28 53  1  0  0  0  0
 29 30  1  0  0  0  0
 30 31  1  0  0  0  0
 30 54  1  0  0  0  0
 30 55  1  0  0  0  0
 31 56  1  0  0  0  0
 31 57  1  0  0  0  0
M  END
$$$$
