lig_CHEMBL3265027
 OpenBabel01052500103D

 39 43  0  0  0  0  0  0  0  0999 V2000
   12.1649   -3.6726   -0.2999 H   0  0  0  0  0  0  0  0  0  0  0  0
   11.3902   -3.2600    0.3331 C   0  0  0  0  0  0  0  0  0  0  0  0
   11.5322   -3.3278    1.6596 N   0  0  0  0  0  0  0  0  0  0  0  0
   10.4128   -2.7432    2.1216 N   0  0  0  0  0  0  0  0  0  0  0  0
   10.2853   -2.6786    3.1244 H   0  0  0  0  0  0  0  0  0  0  0  0
    9.5667   -2.2953    1.1409 C   0  0  0  0  0  0  0  0  0  0  0  0
    8.3296   -1.6471    1.1337 C   0  0  0  0  0  0  0  0  0  0  0  0
    7.8325   -1.4070    2.0668 H   0  0  0  0  0  0  0  0  0  0  0  0
    7.7080   -1.3246   -0.0778 C   0  0  0  0  0  0  0  0  0  0  0  0
    6.4271   -0.6035   -0.0717 C   0  0  0  0  0  0  0  0  0  0  0  0
    5.2734   -1.2940   -0.1172 C   0  0  0  0  0  0  0  0  0  0  0  0
    5.2008   -2.3706   -0.1764 H   0  0  0  0  0  0  0  0  0  0  0  0
    4.0969   -0.5758   -0.0696 N   0  0  0  0  0  0  0  0  0  0  0  0
    4.1135    0.7900    0.0191 C   0  0  0  0  0  0  0  0  0  0  0  0
    2.9020    1.3097    0.0658 N   0  0  0  0  0  0  0  0  0  0  0  0
    2.0683    0.2177   -0.0005 C   0  0  0  0  0  0  0  0  0  0  0  0
    0.9913    0.3323    0.0133 H   0  0  0  0  0  0  0  0  0  0  0  0
    2.7849   -0.9590   -0.0804 C   0  0  0  0  0  0  0  0  0  0  0  0
    2.4815   -1.9938   -0.1449 H   0  0  0  0  0  0  0  0  0  0  0  0
    5.3892    1.4916    0.0595 C   0  0  0  0  0  0  0  0  0  0  0  0
    5.4102    2.8681    0.1752 N   0  0  0  0  0  0  0  0  0  0  0  0
    4.5409    3.2903    0.4812 H   0  0  0  0  0  0  0  0  0  0  0  0
    6.5132    3.7263    0.0526 C   0  0  0  0  0  0  0  0  0  0  0  0
    6.5295    4.9279    0.7653 C   0  0  0  0  0  0  0  0  0  0  0  0
    5.6800    5.2287    1.3736 H   0  0  0  0  0  0  0  0  0  0  0  0
    7.6461    5.7762    0.7299 C   0  0  0  0  0  0  0  0  0  0  0  0
    7.6132    6.7027    1.2972 H   0  0  0  0  0  0  0  0  0  0  0  0
    8.7790    5.4495   -0.0275 C   0  0  0  0  0  0  0  0  0  0  0  0
    9.6236    6.1321   -0.0645 H   0  0  0  0  0  0  0  0  0  0  0  0
    8.7826    4.2361   -0.7315 C   0  0  0  0  0  0  0  0  0  0  0  0
    9.6500    3.9564   -1.3234 H   0  0  0  0  0  0  0  0  0  0  0  0
    7.6571    3.3987   -0.6814 C   0  0  0  0  0  0  0  0  0  0  0  0
    7.6678    2.4767   -1.2573 H   0  0  0  0  0  0  0  0  0  0  0  0
    6.4895    0.7757    0.0180 N   0  0  0  0  0  0  0  0  0  0  0  0
    8.3426   -1.6476   -1.2847 C   0  0  0  0  0  0  0  0  0  0  0  0
    7.8924   -1.4085   -2.2488 H   0  0  0  0  0  0  0  0  0  0  0  0
    9.5810   -2.2995   -1.2800 C   0  0  0  0  0  0  0  0  0  0  0  0
   10.0460   -2.5426   -2.2306 H   0  0  0  0  0  0  0  0  0  0  0  0
   10.1929   -2.6322   -0.0653 C   0  0  0  0  0  0  0  0  0  0  0  0
  1  2  1  0  0  0  0
  2  3  2  0  0  0  0
  2 39  1  0  0  0  0
  3  4  1  0  0  0  0
  4  5  1  0  0  0  0
  4  6  1  0  0  0  0
  6  7  1  0  0  0  0
  6 39  2  0  0  0  0
  7  8  1  0  0  0  0
  7  9  2  0  0  0  0
  9 10  1  0  0  0  0
  9 35  1  0  0  0  0
 10 11  2  0  0  0  0
 10 34  1  0  0  0  0
 11 12  1  0  0  0  0
 11 13  1  0  0  0  0
 13 14  1  0  0  0  0
 13 18  1  0  0  0  0
 14 15  2  0  0  0  0
 14 20  1  0  0  0  0
 15 16  1  0  0  0  0
 16 17  1  0  0  0  0
 16 18  2  0  0  0  0
 18 19  1  0  0  0  0
 20 21  1  0  0  0  0
 20 34  2  0  0  0  0
 21 22  1  0  0  0  0
 21 23  1  0  0  0  0
 23 24  1  0  0  0  0
 23 32  2  0  0  0  0
 24 25  1  0  0  0  0
 24 26  2  0  0  0  0
 26 27  1  0  0  0  0
 26 28  1  0  0  0  0
 28 29  1  0  0  0  0
 28 30  2  0  0  0  0
 30 31  1  0  0  0  0
 30 32  1  0  0  0  0
 32 33  1  0  0  0  0
 35 36  1  0  0  0  0
 35 37  2  0  0  0  0
 37 38  1  0  0  0  0
 37 39  1  0  0  0  0
M  END
$$$$
