lig_CHEMBL3264995
 OpenBabel01052500103D

 60 64  0  0  0  0  0  0  0  0999 V2000
    0.9914    0.3303    0.0148 H   0  0  0  0  0  0  0  0  0  0  0  0
    2.0683    0.2177   -0.0005 C   0  0  0  0  0  0  0  0  0  0  0  0
    2.7849   -0.9590   -0.0804 C   0  0  0  0  0  0  0  0  0  0  0  0
    2.4827   -1.9961   -0.1328 H   0  0  0  0  0  0  0  0  0  0  0  0
    4.0969   -0.5758   -0.0696 N   0  0  0  0  0  0  0  0  0  0  0  0
    4.1135    0.7900    0.0191 C   0  0  0  0  0  0  0  0  0  0  0  0
    2.9020    1.3097    0.0658 N   0  0  0  0  0  0  0  0  0  0  0  0
    5.3892    1.4916    0.0595 C   0  0  0  0  0  0  0  0  0  0  0  0
    5.4102    2.8681    0.1752 N   0  0  0  0  0  0  0  0  0  0  0  0
    4.7055    3.2528    0.7974 H   0  0  0  0  0  0  0  0  0  0  0  0
    6.5132    3.7263    0.0526 C   0  0  0  0  0  0  0  0  0  0  0  0
    6.5295    4.9279    0.7653 C   0  0  0  0  0  0  0  0  0  0  0  0
    5.6601    5.2515    1.3316 H   0  0  0  0  0  0  0  0  0  0  0  0
    7.6461    5.7762    0.7299 C   0  0  0  0  0  0  0  0  0  0  0  0
    7.5901    6.6963    1.3052 H   0  0  0  0  0  0  0  0  0  0  0  0
    8.7790    5.4495   -0.0275 C   0  0  0  0  0  0  0  0  0  0  0  0
    9.8748    6.2600   -0.1412 O   0  0  0  0  0  0  0  0  0  0  0  0
    9.8493    7.5181    0.5177 C   0  0  0  0  0  0  0  0  0  0  0  0
    9.0595    8.1581    0.1132 H   0  0  0  0  0  0  0  0  0  0  0  0
    9.7202    7.3948    1.5907 H   0  0  0  0  0  0  0  0  0  0  0  0
   10.8121    8.0093    0.3503 H   0  0  0  0  0  0  0  0  0  0  0  0
    8.7826    4.2361   -0.7315 C   0  0  0  0  0  0  0  0  0  0  0  0
    9.7675    3.7531   -1.5572 O   0  0  0  0  0  0  0  0  0  0  0  0
   11.1087    4.0845   -1.2292 C   0  0  0  0  0  0  0  0  0  0  0  0
   11.3674    5.0809   -1.5983 H   0  0  0  0  0  0  0  0  0  0  0  0
   11.3094    3.9825   -0.1570 H   0  0  0  0  0  0  0  0  0  0  0  0
   11.7585    3.3757   -1.7527 H   0  0  0  0  0  0  0  0  0  0  0  0
    7.6571    3.3987   -0.6814 C   0  0  0  0  0  0  0  0  0  0  0  0
    7.7030    2.4531   -1.2169 H   0  0  0  0  0  0  0  0  0  0  0  0
    6.4895    0.7757    0.0180 N   0  0  0  0  0  0  0  0  0  0  0  0
    6.4271   -0.6035   -0.0717 C   0  0  0  0  0  0  0  0  0  0  0  0
    7.7080   -1.3246   -0.0778 C   0  0  0  0  0  0  0  0  0  0  0  0
    8.3296   -1.6471    1.1337 C   0  0  0  0  0  0  0  0  0  0  0  0
    7.8680   -1.4098    2.0886 H   0  0  0  0  0  0  0  0  0  0  0  0
    9.5667   -2.2953    1.1409 C   0  0  0  0  0  0  0  0  0  0  0  0
   10.0450   -2.5406    2.0858 H   0  0  0  0  0  0  0  0  0  0  0  0
   10.1929   -2.6322   -0.0653 C   0  0  0  0  0  0  0  0  0  0  0  0
   11.1517   -3.1472   -0.0533 H   0  0  0  0  0  0  0  0  0  0  0  0
    9.5810   -2.2995   -1.2800 C   0  0  0  0  0  0  0  0  0  0  0  0
   10.1719   -2.6501   -2.5943 C   0  0  0  0  0  0  0  0  0  0  0  0
   10.1209   -1.8071   -3.4809 O   0  0  0  0  0  0  0  0  0  0  0  0
   10.6324   -3.9499   -2.6863 N   0  0  0  0  0  0  0  0  0  0  0  0
   10.7693   -4.4660   -1.8270 H   0  0  0  0  0  0  0  0  0  0  0  0
   10.9095   -4.6592   -3.8769 C   0  0  0  0  0  0  0  0  0  0  0  0
   10.8477   -4.0947   -5.1517 C   0  0  0  0  0  0  0  0  0  0  0  0
   10.6461   -3.0407   -5.3004 H   0  0  0  0  0  0  0  0  0  0  0  0
   10.9981   -4.8943   -6.2917 C   0  0  0  0  0  0  0  0  0  0  0  0
   10.9164   -4.4449   -7.2802 H   0  0  0  0  0  0  0  0  0  0  0  0
   11.2214   -6.2688   -6.1653 C   0  0  0  0  0  0  0  0  0  0  0  0
   11.2909   -7.1396   -7.4041 C   0  0  0  0  0  0  0  0  0  0  0  0
   11.3528   -8.3970   -7.2183 O   0  0  0  0  0  0  0  0  0  0  0  0
   11.2523   -6.5538   -8.5310 O   0  5  0  0  0  0  0  0  0  0  0  0
   11.3372   -6.8298   -4.8902 C   0  0  0  0  0  0  0  0  0  0  0  0
   11.5043   -7.9008   -4.7833 H   0  0  0  0  0  0  0  0  0  0  0  0
   11.1849   -6.0284   -3.7530 C   0  0  0  0  0  0  0  0  0  0  0  0
   11.2616   -6.5014   -2.7783 H   0  0  0  0  0  0  0  0  0  0  0  0
    8.3426   -1.6476   -1.2847 C   0  0  0  0  0  0  0  0  0  0  0  0
    7.8813   -1.3601   -2.2267 H   0  0  0  0  0  0  0  0  0  0  0  0
    5.2734   -1.2940   -0.1172 C   0  0  0  0  0  0  0  0  0  0  0  0
    5.2014   -2.3700   -0.1785 H   0  0  0  0  0  0  0  0  0  0  0  0
  1  2  1  0  0  0  0
  2  3  2  0  0  0  0
  2  7  1  0  0  0  0
  3  4  1  0  0  0  0
  3  5  1  0  0  0  0
  5  6  1  0  0  0  0
  5 59  1  0  0  0  0
  6  7  2  0  0  0  0
  6  8  1  0  0  0  0
  8  9  1  0  0  0  0
  8 30  2  0  0  0  0
  9 10  1  0  0  0  0
  9 11  1  0  0  0  0
 11 12  1  0  0  0  0
 11 28  2  0  0  0  0
 12 13  1  0  0  0  0
 12 14  2  0  0  0  0
 14 15  1  0  0  0  0
 14 16  1  0  0  0  0
 16 17  1  0  0  0  0
 16 22  2  0  0  0  0
 17 18  1  0  0  0  0
 18 19  1  0  0  0  0
 18 20  1  0  0  0  0
 18 21  1  0  0  0  0
 22 23  1  0  0  0  0
 22 28  1  0  0  0  0
 23 24  1  0  0  0  0
 24 25  1  0  0  0  0
 24 26  1  0  0  0  0
 24 27  1  0  0  0  0
 28 29  1  0  0  0  0
 30 31  1  0  0  0  0
 31 32  1  0  0  0  0
 31 59  2  0  0  0  0
 32 33  1  0  0  0  0
 32 57  2  0  0  0  0
 33 34  1  0  0  0  0
 33 35  2  0  0  0  0
 35 36  1  0  0  0  0
 35 37  1  0  0  0  0
 37 38  1  0  0  0  0
 37 39  2  0  0  0  0
 39 40  1  0  0  0  0
 39 57  1  0  0  0  0
 40 41  2  0  0  0  0
 40 42  1  0  0  0  0
 42 43  1  0  0  0  0
 42 44  1  0  0  0  0
 44 45  1  0  0  0  0
 44 55  2  0  0  0  0
 45 46  1  0  0  0  0
 45 47  2  0  0  0  0
 47 48  1  0  0  0  0
 47 49  1  0  0  0  0
 49 50  1  0  0  0  0
 49 53  2  0  0  0  0
 50 51  2  0  0  0  0
 50 52  1  0  0  0  0
 53 54  1  0  0  0  0
 53 55  1  0  0  0  0
 55 56  1  0  0  0  0
 57 58  1  0  0  0  0
 59 60  1  0  0  0  0
M  CHG  1  52  -1
M  END
$$$$
