lig_CHEMBL3265020
 OpenBabel01052500103D

 48 52  0  0  0  0  0  0  0  0999 V2000
    0.9910    0.3320    0.0138 H   0  0  0  0  0  0  0  0  0  0  0  0
    2.0683    0.2177   -0.0005 C   0  0  0  0  0  0  0  0  0  0  0  0
    2.7849   -0.9590   -0.0804 C   0  0  0  0  0  0  0  0  0  0  0  0
    2.4814   -1.9938   -0.1380 H   0  0  0  0  0  0  0  0  0  0  0  0
    4.0969   -0.5758   -0.0696 N   0  0  0  0  0  0  0  0  0  0  0  0
    4.1135    0.7900    0.0191 C   0  0  0  0  0  0  0  0  0  0  0  0
    2.9020    1.3097    0.0658 N   0  0  0  0  0  0  0  0  0  0  0  0
    5.3892    1.4916    0.0595 C   0  0  0  0  0  0  0  0  0  0  0  0
    5.4102    2.8681    0.1752 N   0  0  0  0  0  0  0  0  0  0  0  0
    4.6793    3.2640    0.7583 H   0  0  0  0  0  0  0  0  0  0  0  0
    6.5132    3.7263    0.0526 C   0  0  0  0  0  0  0  0  0  0  0  0
    6.5295    4.9279    0.7653 C   0  0  0  0  0  0  0  0  0  0  0  0
    5.6621    5.2448    1.3397 H   0  0  0  0  0  0  0  0  0  0  0  0
    7.6461    5.7762    0.7299 C   0  0  0  0  0  0  0  0  0  0  0  0
    7.5837    6.6913    1.3077 H   0  0  0  0  0  0  0  0  0  0  0  0
    8.7790    5.4495   -0.0275 C   0  0  0  0  0  0  0  0  0  0  0  0
    9.8748    6.2600   -0.1412 O   0  0  0  0  0  0  0  0  0  0  0  0
    9.8493    7.5181    0.5177 C   0  0  0  0  0  0  0  0  0  0  0  0
    9.0146    8.1357    0.1697 H   0  0  0  0  0  0  0  0  0  0  0  0
    9.8234    7.3902    1.6048 H   0  0  0  0  0  0  0  0  0  0  0  0
   10.7746    8.0461    0.2670 H   0  0  0  0  0  0  0  0  0  0  0  0
    8.7826    4.2361   -0.7315 C   0  0  0  0  0  0  0  0  0  0  0  0
    9.7675    3.7531   -1.5572 O   0  0  0  0  0  0  0  0  0  0  0  0
   11.1087    4.0845   -1.2292 C   0  0  0  0  0  0  0  0  0  0  0  0
   11.3543    5.0990   -1.5547 H   0  0  0  0  0  0  0  0  0  0  0  0
   11.3207    3.9352   -0.1651 H   0  0  0  0  0  0  0  0  0  0  0  0
   11.7595    3.4070   -1.7922 H   0  0  0  0  0  0  0  0  0  0  0  0
    7.6571    3.3987   -0.6814 C   0  0  0  0  0  0  0  0  0  0  0  0
    7.7024    2.4506   -1.2143 H   0  0  0  0  0  0  0  0  0  0  0  0
    6.4895    0.7757    0.0180 N   0  0  0  0  0  0  0  0  0  0  0  0
    6.4271   -0.6035   -0.0717 C   0  0  0  0  0  0  0  0  0  0  0  0
    7.7080   -1.3246   -0.0778 C   0  0  0  0  0  0  0  0  0  0  0  0
    8.3296   -1.6471    1.1337 C   0  0  0  0  0  0  0  0  0  0  0  0
    7.8426   -1.3938    2.0731 H   0  0  0  0  0  0  0  0  0  0  0  0
    9.5667   -2.2953    1.1409 C   0  0  0  0  0  0  0  0  0  0  0  0
   10.0522   -2.5561    2.0754 H   0  0  0  0  0  0  0  0  0  0  0  0
   10.1929   -2.6322   -0.0653 C   0  0  0  0  0  0  0  0  0  0  0  0
    9.5810   -2.2995   -1.2800 C   0  0  0  0  0  0  0  0  0  0  0  0
    8.3426   -1.6476   -1.2847 C   0  0  0  0  0  0  0  0  0  0  0  0
    7.8748   -1.4067   -2.2354 H   0  0  0  0  0  0  0  0  0  0  0  0
   10.4409   -2.7552   -2.3154 C   0  0  0  0  0  0  0  0  0  0  0  0
   10.2706   -2.6593   -3.3796 H   0  0  0  0  0  0  0  0  0  0  0  0
   11.5267   -3.3632   -1.7279 C   0  0  0  0  0  0  0  0  0  0  0  0
   12.3920   -3.8496   -2.1574 H   0  0  0  0  0  0  0  0  0  0  0  0
   11.3741   -3.2708   -0.3698 N   0  0  0  0  0  0  0  0  0  0  0  0
   12.0239   -3.6302    0.3157 H   0  0  0  0  0  0  0  0  0  0  0  0
    5.2734   -1.2940   -0.1172 C   0  0  0  0  0  0  0  0  0  0  0  0
    5.2144   -2.3716   -0.1917 H   0  0  0  0  0  0  0  0  0  0  0  0
  1  2  1  0  0  0  0
  2  3  2  0  0  0  0
  2  7  1  0  0  0  0
  3  4  1  0  0  0  0
  3  5  1  0  0  0  0
  5  6  1  0  0  0  0
  5 47  1  0  0  0  0
  6  7  2  0  0  0  0
  6  8  1  0  0  0  0
  8  9  1  0  0  0  0
  8 30  2  0  0  0  0
  9 10  1  0  0  0  0
  9 11  1  0  0  0  0
 11 12  1  0  0  0  0
 11 28  2  0  0  0  0
 12 13  1  0  0  0  0
 12 14  2  0  0  0  0
 14 15  1  0  0  0  0
 14 16  1  0  0  0  0
 16 17  1  0  0  0  0
 16 22  2  0  0  0  0
 17 18  1  0  0  0  0
 18 19  1  0  0  0  0
 18 20  1  0  0  0  0
 18 21  1  0  0  0  0
 22 23  1  0  0  0  0
 22 28  1  0  0  0  0
 23 24  1  0  0  0  0
 24 25  1  0  0  0  0
 24 26  1  0  0  0  0
 24 27  1  0  0  0  0
 28 29  1  0  0  0  0
 30 31  1  0  0  0  0
 31 32  1  0  0  0  0
 31 47  2  0  0  0  0
 32 33  1  0  0  0  0
 32 39  2  0  0  0  0
 33 34  1  0  0  0  0
 33 35  2  0  0  0  0
 35 36  1  0  0  0  0
 35 37  1  0  0  0  0
 37 38  2  0  0  0  0
 37 45  1  0  0  0  0
 38 39  1  0  0  0  0
 38 41  1  0  0  0  0
 39 40  1  0  0  0  0
 41 42  1  0  0  0  0
 41 43  2  0  0  0  0
 43 44  1  0  0  0  0
 43 45  1  0  0  0  0
 45 46  1  0  0  0  0
 47 48  1  0  0  0  0
M  END
$$$$
