lig_CHEMBL3265031
 OpenBabel01052500103D

 58 63  0  0  0  0  0  0  0  0999 V2000
   12.7758    9.3078    0.2719 H   0  0  0  0  0  0  0  0  0  0  0  0
   12.2953    8.8307   -0.4268 O   0  0  0  0  0  0  0  0  0  0  0  0
   12.4902    7.4269   -0.2167 C   0  0  0  0  0  0  0  0  0  0  0  0
   13.9980    7.1641   -0.1772 C   0  0  0  0  0  0  0  0  0  0  0  0
   14.2170    6.0999   -0.0383 H   0  0  0  0  0  0  0  0  0  0  0  0
   14.4740    7.4965   -1.1066 H   0  0  0  0  0  0  0  0  0  0  0  0
   14.4732    7.7231    0.6363 H   0  0  0  0  0  0  0  0  0  0  0  0
   11.8419    7.0296    1.1224 C   0  0  0  0  0  0  0  0  0  0  0  0
   12.1504    6.0098    1.3893 H   0  0  0  0  0  0  0  0  0  0  0  0
   12.1770    7.6956    1.9263 H   0  0  0  0  0  0  0  0  0  0  0  0
   10.3130    7.0709    1.0539 C   0  0  0  0  0  0  0  0  0  0  0  0
    9.9194    6.6907    2.0046 H   0  0  0  0  0  0  0  0  0  0  0  0
    9.9493    8.0984    0.9300 H   0  0  0  0  0  0  0  0  0  0  0  0
    9.9106    6.2389   -0.0729 N   0  0  0  0  0  0  0  0  0  0  0  0
    8.7790    5.4495   -0.0275 C   0  0  0  0  0  0  0  0  0  0  0  0
    7.6461    5.7762    0.7299 C   0  0  0  0  0  0  0  0  0  0  0  0
    7.6065    6.7035    1.2932 H   0  0  0  0  0  0  0  0  0  0  0  0
    6.5295    4.9279    0.7653 C   0  0  0  0  0  0  0  0  0  0  0  0
    5.6740    5.2225    1.3670 H   0  0  0  0  0  0  0  0  0  0  0  0
    6.5132    3.7263    0.0526 C   0  0  0  0  0  0  0  0  0  0  0  0
    5.4102    2.8681    0.1752 N   0  0  0  0  0  0  0  0  0  0  0  0
    4.6070    3.3125   -0.2589 H   0  0  0  0  0  0  0  0  0  0  0  0
    5.3892    1.4916    0.0595 C   0  0  0  0  0  0  0  0  0  0  0  0
    6.4895    0.7757    0.0180 N   0  0  0  0  0  0  0  0  0  0  0  0
    6.4271   -0.6035   -0.0717 C   0  0  0  0  0  0  0  0  0  0  0  0
    7.7080   -1.3246   -0.0778 C   0  0  0  0  0  0  0  0  0  0  0  0
    8.3296   -1.6471    1.1337 C   0  0  0  0  0  0  0  0  0  0  0  0
    7.8880   -1.4009    2.0960 H   0  0  0  0  0  0  0  0  0  0  0  0
    9.5667   -2.2953    1.1409 C   0  0  0  0  0  0  0  0  0  0  0  0
   10.0501   -2.5395    2.0809 H   0  0  0  0  0  0  0  0  0  0  0  0
   10.1929   -2.6322   -0.0653 C   0  0  0  0  0  0  0  0  0  0  0  0
    9.5810   -2.2995   -1.2800 C   0  0  0  0  0  0  0  0  0  0  0  0
    8.3426   -1.6476   -1.2847 C   0  0  0  0  0  0  0  0  0  0  0  0
    7.8517   -1.3842   -2.2196 H   0  0  0  0  0  0  0  0  0  0  0  0
   10.4519   -2.7400   -2.2382 N   0  0  0  0  0  0  0  0  0  0  0  0
   10.3446   -2.6610   -3.2431 H   0  0  0  0  0  0  0  0  0  0  0  0
   11.5538   -3.3481   -1.7567 N   0  0  0  0  0  0  0  0  0  0  0  0
   11.3941   -3.2723   -0.4330 C   0  0  0  0  0  0  0  0  0  0  0  0
   12.1553   -3.6847    0.2161 H   0  0  0  0  0  0  0  0  0  0  0  0
    5.2734   -1.2940   -0.1172 C   0  0  0  0  0  0  0  0  0  0  0  0
    5.1996   -2.3710   -0.1952 H   0  0  0  0  0  0  0  0  0  0  0  0
    4.0969   -0.5758   -0.0696 N   0  0  0  0  0  0  0  0  0  0  0  0
    4.1135    0.7900    0.0191 C   0  0  0  0  0  0  0  0  0  0  0  0
    2.9020    1.3097    0.0658 N   0  0  0  0  0  0  0  0  0  0  0  0
    2.0683    0.2177   -0.0005 C   0  0  0  0  0  0  0  0  0  0  0  0
    0.9912    0.3322    0.0058 H   0  0  0  0  0  0  0  0  0  0  0  0
    2.7849   -0.9590   -0.0804 C   0  0  0  0  0  0  0  0  0  0  0  0
    2.4832   -1.9947   -0.1403 H   0  0  0  0  0  0  0  0  0  0  0  0
    7.6571    3.3987   -0.6814 C   0  0  0  0  0  0  0  0  0  0  0  0
    7.6974    2.4783   -1.2569 H   0  0  0  0  0  0  0  0  0  0  0  0
    8.7826    4.2361   -0.7315 C   0  0  0  0  0  0  0  0  0  0  0  0
    9.6569    3.9025   -1.2851 H   0  0  0  0  0  0  0  0  0  0  0  0
   10.3477    6.7339   -1.3788 C   0  0  0  0  0  0  0  0  0  0  0  0
    9.9514    6.1415   -2.2119 H   0  0  0  0  0  0  0  0  0  0  0  0
    9.9916    7.7613   -1.5280 H   0  0  0  0  0  0  0  0  0  0  0  0
   11.8705    6.6750   -1.4070 C   0  0  0  0  0  0  0  0  0  0  0  0
   12.2204    7.1013   -2.3548 H   0  0  0  0  0  0  0  0  0  0  0  0
   12.1801    5.6217   -1.3820 H   0  0  0  0  0  0  0  0  0  0  0  0
  1  2  1  0  0  0  0
  2  3  1  0  0  0  0
  3  4  1  0  0  0  0
  3  8  1  0  0  0  0
  3 56  1  0  0  0  0
  4  5  1  0  0  0  0
  4  6  1  0  0  0  0
  4  7  1  0  0  0  0
  8  9  1  0  0  0  0
  8 10  1  0  0  0  0
  8 11  1  0  0  0  0
 11 12  1  0  0  0  0
 11 13  1  0  0  0  0
 11 14  1  0  0  0  0
 14 15  1  0  0  0  0
 14 53  1  0  0  0  0
 15 16  1  0  0  0  0
 15 51  2  0  0  0  0
 16 17  1  0  0  0  0
 16 18  2  0  0  0  0
 18 19  1  0  0  0  0
 18 20  1  0  0  0  0
 20 21  1  0  0  0  0
 20 49  2  0  0  0  0
 21 22  1  0  0  0  0
 21 23  1  0  0  0  0
 23 24  2  0  0  0  0
 23 43  1  0  0  0  0
 24 25  1  0  0  0  0
 25 26  1  0  0  0  0
 25 40  2  0  0  0  0
 26 27  1  0  0  0  0
 26 33  2  0  0  0  0
 27 28  1  0  0  0  0
 27 29  2  0  0  0  0
 29 30  1  0  0  0  0
 29 31  1  0  0  0  0
 31 32  2  0  0  0  0
 31 38  1  0  0  0  0
 32 33  1  0  0  0  0
 32 35  1  0  0  0  0
 33 34  1  0  0  0  0
 35 36  1  0  0  0  0
 35 37  1  0  0  0  0
 37 38  2  0  0  0  0
 38 39  1  0  0  0  0
 40 41  1  0  0  0  0
 40 42  1  0  0  0  0
 42 43  1  0  0  0  0
 42 47  1  0  0  0  0
 43 44  2  0  0  0  0
 44 45  1  0  0  0  0
 45 46  1  0  0  0  0
 45 47  2  0  0  0  0
 47 48  1  0  0  0  0
 49 50  1  0  0  0  0
 49 51  1  0  0  0  0
 51 52  1  0  0  0  0
 53 54  1  0  0  0  0
 53 55  1  0  0  0  0
 53 56  1  0  0  0  0
 56 57  1  0  0  0  0
 56 58  1  0  0  0  0
M  END
$$$$
