lig_CHEMBL3265021
 OpenBabel01052500103D

 47 51  0  0  0  0  0  0  0  0999 V2000
   10.3844   -2.7098   -3.3325 H   0  0  0  0  0  0  0  0  0  0  0  0
   10.4814   -2.7706   -2.2565 C   0  0  0  0  0  0  0  0  0  0  0  0
   11.5633   -3.3559   -1.7364 N   0  0  0  0  0  0  0  0  0  0  0  0
   11.3628   -3.2570   -0.4097 N   0  0  0  0  0  0  0  0  0  0  0  0
   12.0659   -3.6379    0.2128 H   0  0  0  0  0  0  0  0  0  0  0  0
   10.1929   -2.6322   -0.0653 C   0  0  0  0  0  0  0  0  0  0  0  0
    9.5667   -2.2953    1.1409 C   0  0  0  0  0  0  0  0  0  0  0  0
   10.0105   -2.5178    2.1056 H   0  0  0  0  0  0  0  0  0  0  0  0
    8.3296   -1.6471    1.1337 C   0  0  0  0  0  0  0  0  0  0  0  0
    7.8727   -1.4028    2.0934 H   0  0  0  0  0  0  0  0  0  0  0  0
    7.7080   -1.3246   -0.0778 C   0  0  0  0  0  0  0  0  0  0  0  0
    6.4271   -0.6035   -0.0717 C   0  0  0  0  0  0  0  0  0  0  0  0
    5.2734   -1.2940   -0.1172 C   0  0  0  0  0  0  0  0  0  0  0  0
    5.2010   -2.3689   -0.1900 H   0  0  0  0  0  0  0  0  0  0  0  0
    4.0969   -0.5758   -0.0696 N   0  0  0  0  0  0  0  0  0  0  0  0
    4.1135    0.7900    0.0191 C   0  0  0  0  0  0  0  0  0  0  0  0
    2.9020    1.3097    0.0658 N   0  0  0  0  0  0  0  0  0  0  0  0
    2.0683    0.2177   -0.0005 C   0  0  0  0  0  0  0  0  0  0  0  0
    0.9917    0.3323    0.0083 H   0  0  0  0  0  0  0  0  0  0  0  0
    2.7849   -0.9590   -0.0804 C   0  0  0  0  0  0  0  0  0  0  0  0
    2.4811   -1.9925   -0.1518 H   0  0  0  0  0  0  0  0  0  0  0  0
    5.3892    1.4916    0.0595 C   0  0  0  0  0  0  0  0  0  0  0  0
    5.4102    2.8681    0.1752 N   0  0  0  0  0  0  0  0  0  0  0  0
    4.5182    3.3185   -0.0067 H   0  0  0  0  0  0  0  0  0  0  0  0
    6.5132    3.7263    0.0526 C   0  0  0  0  0  0  0  0  0  0  0  0
    6.5295    4.9279    0.7653 C   0  0  0  0  0  0  0  0  0  0  0  0
    5.6852    5.2347    1.3748 H   0  0  0  0  0  0  0  0  0  0  0  0
    7.6461    5.7762    0.7299 C   0  0  0  0  0  0  0  0  0  0  0  0
    7.5793    6.6931    1.3061 H   0  0  0  0  0  0  0  0  0  0  0  0
    8.7790    5.4495   -0.0275 C   0  0  0  0  0  0  0  0  0  0  0  0
    9.8748    6.2600   -0.1412 O   0  0  0  0  0  0  0  0  0  0  0  0
    9.8493    7.5181    0.5177 C   0  0  0  0  0  0  0  0  0  0  0  0
    9.0238    8.1407    0.1559 H   0  0  0  0  0  0  0  0  0  0  0  0
    9.8039    7.3911    1.6047 H   0  0  0  0  0  0  0  0  0  0  0  0
   10.7825    8.0386    0.2833 H   0  0  0  0  0  0  0  0  0  0  0  0
    8.7826    4.2361   -0.7315 C   0  0  0  0  0  0  0  0  0  0  0  0
    9.7675    3.7531   -1.5572 O   0  0  0  0  0  0  0  0  0  0  0  0
   11.1087    4.0845   -1.2292 C   0  0  0  0  0  0  0  0  0  0  0  0
   11.3664    5.0801   -1.6016 H   0  0  0  0  0  0  0  0  0  0  0  0
   11.3054    3.9894   -0.1557 H   0  0  0  0  0  0  0  0  0  0  0  0
   11.7602    3.3726   -1.7456 H   0  0  0  0  0  0  0  0  0  0  0  0
    7.6571    3.3987   -0.6814 C   0  0  0  0  0  0  0  0  0  0  0  0
    7.6946    2.4650   -1.2387 H   0  0  0  0  0  0  0  0  0  0  0  0
    6.4895    0.7757    0.0180 N   0  0  0  0  0  0  0  0  0  0  0  0
    8.3426   -1.6476   -1.2847 C   0  0  0  0  0  0  0  0  0  0  0  0
    7.8913   -1.3842   -2.2355 H   0  0  0  0  0  0  0  0  0  0  0  0
    9.5810   -2.2995   -1.2800 C   0  0  0  0  0  0  0  0  0  0  0  0
  1  2  1  0  0  0  0
  2  3  2  0  0  0  0
  2 47  1  0  0  0  0
  3  4  1  0  0  0  0
  4  5  1  0  0  0  0
  4  6  1  0  0  0  0
  6  7  1  0  0  0  0
  6 47  2  0  0  0  0
  7  8  1  0  0  0  0
  7  9  2  0  0  0  0
  9 10  1  0  0  0  0
  9 11  1  0  0  0  0
 11 12  1  0  0  0  0
 11 45  2  0  0  0  0
 12 13  2  0  0  0  0
 12 44  1  0  0  0  0
 13 14  1  0  0  0  0
 13 15  1  0  0  0  0
 15 16  1  0  0  0  0
 15 20  1  0  0  0  0
 16 17  2  0  0  0  0
 16 22  1  0  0  0  0
 17 18  1  0  0  0  0
 18 19  1  0  0  0  0
 18 20  2  0  0  0  0
 20 21  1  0  0  0  0
 22 23  1  0  0  0  0
 22 44  2  0  0  0  0
 23 24  1  0  0  0  0
 23 25  1  0  0  0  0
 25 26  1  0  0  0  0
 25 42  2  0  0  0  0
 26 27  1  0  0  0  0
 26 28  2  0  0  0  0
 28 29  1  0  0  0  0
 28 30  1  0  0  0  0
 30 31  1  0  0  0  0
 30 36  2  0  0  0  0
 31 32  1  0  0  0  0
 32 33  1  0  0  0  0
 32 34  1  0  0  0  0
 32 35  1  0  0  0  0
 36 37  1  0  0  0  0
 36 42  1  0  0  0  0
 37 38  1  0  0  0  0
 38 39  1  0  0  0  0
 38 40  1  0  0  0  0
 38 41  1  0  0  0  0
 42 43  1  0  0  0  0
 45 46  1  0  0  0  0
 45 47  1  0  0  0  0
M  END
$$$$
