lig_CHEMBL3265001
 OpenBabel01052500103D

 62 67  0  0  0  0  0  0  0  0999 V2000
    0.9912    0.3306    0.0108 H   0  0  0  0  0  0  0  0  0  0  0  0
    2.0683    0.2177   -0.0005 C   0  0  0  0  0  0  0  0  0  0  0  0
    2.7849   -0.9590   -0.0804 C   0  0  0  0  0  0  0  0  0  0  0  0
    2.4832   -1.9948   -0.1495 H   0  0  0  0  0  0  0  0  0  0  0  0
    4.0969   -0.5758   -0.0696 N   0  0  0  0  0  0  0  0  0  0  0  0
    4.1135    0.7900    0.0191 C   0  0  0  0  0  0  0  0  0  0  0  0
    2.9020    1.3097    0.0658 N   0  0  0  0  0  0  0  0  0  0  0  0
    5.3892    1.4916    0.0595 C   0  0  0  0  0  0  0  0  0  0  0  0
    5.4102    2.8681    0.1752 N   0  0  0  0  0  0  0  0  0  0  0  0
    4.5199    3.3389    0.0592 H   0  0  0  0  0  0  0  0  0  0  0  0
    6.5132    3.7263    0.0526 C   0  0  0  0  0  0  0  0  0  0  0  0
    6.5295    4.9279    0.7653 C   0  0  0  0  0  0  0  0  0  0  0  0
    5.6693    5.2252    1.3617 H   0  0  0  0  0  0  0  0  0  0  0  0
    7.6461    5.7762    0.7299 C   0  0  0  0  0  0  0  0  0  0  0  0
    7.5777    6.7015    1.2925 H   0  0  0  0  0  0  0  0  0  0  0  0
    8.7790    5.4495   -0.0275 C   0  0  0  0  0  0  0  0  0  0  0  0
    9.8748    6.2600   -0.1412 O   0  0  0  0  0  0  0  0  0  0  0  0
    9.8493    7.5181    0.5177 C   0  0  0  0  0  0  0  0  0  0  0  0
    9.0042    8.1311    0.1863 H   0  0  0  0  0  0  0  0  0  0  0  0
    9.8432    7.3865    1.6046 H   0  0  0  0  0  0  0  0  0  0  0  0
   10.7660    8.0534    0.2519 H   0  0  0  0  0  0  0  0  0  0  0  0
    8.7826    4.2361   -0.7315 C   0  0  0  0  0  0  0  0  0  0  0  0
    9.7675    3.7531   -1.5572 O   0  0  0  0  0  0  0  0  0  0  0  0
   11.1087    4.0845   -1.2292 C   0  0  0  0  0  0  0  0  0  0  0  0
   11.3601    5.0927   -1.5703 H   0  0  0  0  0  0  0  0  0  0  0  0
   11.3116    3.9524   -0.1614 H   0  0  0  0  0  0  0  0  0  0  0  0
   11.7583    3.3937   -1.7762 H   0  0  0  0  0  0  0  0  0  0  0  0
    7.6571    3.3987   -0.6814 C   0  0  0  0  0  0  0  0  0  0  0  0
    7.6746    2.4860   -1.2728 H   0  0  0  0  0  0  0  0  0  0  0  0
    6.4895    0.7757    0.0180 N   0  0  0  0  0  0  0  0  0  0  0  0
    6.4271   -0.6035   -0.0717 C   0  0  0  0  0  0  0  0  0  0  0  0
    7.7080   -1.3246   -0.0778 C   0  0  0  0  0  0  0  0  0  0  0  0
    8.3296   -1.6471    1.1337 C   0  0  0  0  0  0  0  0  0  0  0  0
    7.8585   -1.4014    2.0847 H   0  0  0  0  0  0  0  0  0  0  0  0
    9.5667   -2.2953    1.1409 C   0  0  0  0  0  0  0  0  0  0  0  0
   10.0405   -2.5358    2.0899 H   0  0  0  0  0  0  0  0  0  0  0  0
   10.1929   -2.6322   -0.0653 C   0  0  0  0  0  0  0  0  0  0  0  0
   11.1603   -3.1259   -0.0420 H   0  0  0  0  0  0  0  0  0  0  0  0
    9.5810   -2.2995   -1.2800 C   0  0  0  0  0  0  0  0  0  0  0  0
   10.1719   -2.6501   -2.5943 C   0  0  0  0  0  0  0  0  0  0  0  0
   10.1209   -1.8071   -3.4809 O   0  0  0  0  0  0  0  0  0  0  0  0
   10.6324   -3.9499   -2.6863 N   0  0  0  0  0  0  0  0  0  0  0  0
   10.5715   -4.5283   -1.8603 H   0  0  0  0  0  0  0  0  0  0  0  0
   10.9095   -4.6592   -3.8769 C   0  0  0  0  0  0  0  0  0  0  0  0
   10.8477   -4.0947   -5.1517 C   0  0  0  0  0  0  0  0  0  0  0  0
   10.6646   -3.0368   -5.3055 H   0  0  0  0  0  0  0  0  0  0  0  0
   10.9981   -4.8943   -6.2917 C   0  0  0  0  0  0  0  0  0  0  0  0
   10.9160   -4.4407   -7.2776 H   0  0  0  0  0  0  0  0  0  0  0  0
   11.2214   -6.2688   -6.1653 C   0  0  0  0  0  0  0  0  0  0  0  0
   11.3004   -7.1429   -7.3967 C   0  0  0  0  0  0  0  0  0  0  0  0
   11.1668   -6.6854   -8.6674 N   0  0  0  0  0  0  0  0  0  0  0  0
   11.2516   -7.7911   -9.4435 N   0  0  0  0  0  0  0  0  0  0  0  0
   11.4415   -8.8736   -8.6605 N   0  0  0  0  0  0  0  0  0  0  0  0
   11.4834   -8.4877   -7.3636 N   0  5  0  0  0  0  0  0  0  0  0  0
   11.3372   -6.8298   -4.8902 C   0  0  0  0  0  0  0  0  0  0  0  0
   11.5215   -7.8963   -4.7799 H   0  0  0  0  0  0  0  0  0  0  0  0
   11.1849   -6.0284   -3.7530 C   0  0  0  0  0  0  0  0  0  0  0  0
   11.2420   -6.5035   -2.7783 H   0  0  0  0  0  0  0  0  0  0  0  0
    8.3426   -1.6476   -1.2847 C   0  0  0  0  0  0  0  0  0  0  0  0
    7.8741   -1.4020   -2.2364 H   0  0  0  0  0  0  0  0  0  0  0  0
    5.2734   -1.2940   -0.1172 C   0  0  0  0  0  0  0  0  0  0  0  0
    5.1975   -2.3727   -0.1623 H   0  0  0  0  0  0  0  0  0  0  0  0
  1  2  1  0  0  0  0
  2  3  2  0  0  0  0
  2  7  1  0  0  0  0
  3  4  1  0  0  0  0
  3  5  1  0  0  0  0
  5  6  1  0  0  0  0
  5 61  1  0  0  0  0
  6  7  2  0  0  0  0
  6  8  1  0  0  0  0
  8  9  1  0  0  0  0
  8 30  2  0  0  0  0
  9 10  1  0  0  0  0
  9 11  1  0  0  0  0
 11 12  1  0  0  0  0
 11 28  2  0  0  0  0
 12 13  1  0  0  0  0
 12 14  2  0  0  0  0
 14 15  1  0  0  0  0
 14 16  1  0  0  0  0
 16 17  1  0  0  0  0
 16 22  2  0  0  0  0
 17 18  1  0  0  0  0
 18 19  1  0  0  0  0
 18 20  1  0  0  0  0
 18 21  1  0  0  0  0
 22 23  1  0  0  0  0
 22 28  1  0  0  0  0
 23 24  1  0  0  0  0
 24 25  1  0  0  0  0
 24 26  1  0  0  0  0
 24 27  1  0  0  0  0
 28 29  1  0  0  0  0
 30 31  1  0  0  0  0
 31 32  1  0  0  0  0
 31 61  2  0  0  0  0
 32 33  1  0  0  0  0
 32 59  2  0  0  0  0
 33 34  1  0  0  0  0
 33 35  2  0  0  0  0
 35 36  1  0  0  0  0
 35 37  1  0  0  0  0
 37 38  1  0  0  0  0
 37 39  2  0  0  0  0
 39 40  1  0  0  0  0
 39 59  1  0  0  0  0
 40 41  2  0  0  0  0
 40 42  1  0  0  0  0
 42 43  1  0  0  0  0
 42 44  1  0  0  0  0
 44 45  1  0  0  0  0
 44 57  2  0  0  0  0
 45 46  1  0  0  0  0
 45 47  2  0  0  0  0
 47 48  1  0  0  0  0
 47 49  1  0  0  0  0
 49 50  1  0  0  0  0
 49 55  2  0  0  0  0
 50 51  2  0  0  0  0
 50 54  1  0  0  0  0
 51 52  1  0  0  0  0
 52 53  2  0  0  0  0
 53 54  1  0  0  0  0
 55 56  1  0  0  0  0
 55 57  1  0  0  0  0
 57 58  1  0  0  0  0
 59 60  1  0  0  0  0
 61 62  1  0  0  0  0
M  CHG  1  54  -1
M  END
$$$$
