lig_1
  PyMOL3.0          3D                             0

 36 38  0  0  1  0  0  0  0  0999 V2000
    1.8741    0.2997    0.1647 H   0  0  0  0  0  0  0  0  0  0  0  0
    2.2649    1.0993    0.7940 C   0  0  1  0  0  0  0  0  0  0  0  0
    1.8638    1.0260    1.8101 H   0  0  0  0  0  0  0  0  0  0  0  0
    3.7659    1.1049    0.8114 C   0  0  0  0  0  0  0  0  0  0  0  0
    4.2418    2.4333    0.7110 C   0  0  0  0  0  0  0  0  0  0  0  0
    5.6038    2.7146    0.8076 C   0  0  0  0  0  0  0  0  0  0  0  0
    6.2158    3.9430    0.7335 O   0  0  0  0  0  0  0  0  0  0  0  0
    5.6469    5.0644    1.2849 C   0  0  0  0  0  0  0  0  0  0  0  0
    4.8817    5.0816    2.4490 C   0  0  0  0  0  0  0  0  0  0  0  0
    4.7054    4.1815    3.0287 H   0  0  0  0  0  0  0  0  0  0  0  0
    4.2666    6.2676    2.8416 C   0  0  0  0  0  0  0  0  0  0  0  0
    3.4312    6.2565    3.8887 F   0  0  0  0  0  0  0  0  0  0  0  0
    4.4752    7.4550    2.1516 C   0  0  0  0  0  0  0  0  0  0  0  0
    3.9758    8.3619    2.4768 H   0  0  0  0  0  0  0  0  0  0  0  0
    5.3342    7.4529    1.0591 C   0  0  0  0  0  0  0  0  0  0  0  0
    5.6642    8.9231    0.2291 Cl  0  0  0  0  0  0  0  0  0  0  0  0
    5.9189    6.2645    0.6214 C   0  0  0  0  0  0  0  0  0  0  0  0
    6.5784    6.2643   -0.2435 H   0  0  0  0  0  0  0  0  0  0  0  0
    6.4910    1.6339    0.9044 C   0  0  0  0  0  0  0  0  0  0  0  0
    7.5639    1.8207    0.9415 H   0  0  0  0  0  0  0  0  0  0  0  0
    6.0255    0.3125    0.9943 C   0  0  0  0  0  0  0  0  0  0  0  0
    6.7546   -0.4866    1.1251 H   0  0  0  0  0  0  0  0  0  0  0  0
    4.6512    0.0404    0.9737 C   0  0  0  0  0  0  0  0  0  0  0  0
    4.0984   -1.6090    1.4015 S   0  0  0  0  0  0  0  0  0  0  0  0
    5.2980   -2.3454    1.7712 O   0  0  0  0  0  0  0  0  0  0  0  0
    3.0552   -1.4254    2.4046 O   0  0  0  0  0  0  0  0  0  0  0  0
    3.4006   -2.3419   -0.0876 C   0  0  0  0  0  0  0  0  0  0  0  0
    2.3583   -2.0542   -0.1975 H   0  0  0  0  0  0  0  0  0  0  0  0
    4.0826   -2.0012   -1.2198 F   0  0  0  0  0  0  0  0  0  0  0  0
    3.4151   -3.7096   -0.0402 F   0  0  0  0  0  0  0  0  0  0  0  0
    3.0832    3.3824    0.5671 C   0  0  0  0  0  0  0  0  0  0  0  0
    3.2596    4.1572   -0.1827 H   0  0  0  0  0  0  0  0  0  0  0  0
    2.8234    3.8295    1.5305 H   0  0  0  0  0  0  0  0  0  0  0  0
    1.9555    2.4507    0.1463 C   0  0  0  0  0  0  0  0  0  0  0  0
    1.9323    2.3598   -0.9489 H   0  0  0  0  0  0  0  0  0  0  0  0
    0.9733    2.8302    0.4471 H   0  0  0  0  0  0  0  0  0  0  0  0
  1  2  1  0  0  0  0
  2  3  1  0  0  0  0
  2  4  1  0  0  0  0
  2 34  1  0  0  0  0
  4  5  2  0  0  0  0
  4 23  1  0  0  0  0
  5  6  1  0  0  0  0
  5 31  1  0  0  0  0
  6  7  1  0  0  0  0
  6 19  2  0  0  0  0
  7  8  1  0  0  0  0
  8  9  2  0  0  0  0
  8 17  1  0  0  0  0
  9 10  1  0  0  0  0
  9 11  1  0  0  0  0
 11 12  1  0  0  0  0
 11 13  2  0  0  0  0
 13 14  1  0  0  0  0
 13 15  1  0  0  0  0
 15 16  1  0  0  0  0
 15 17  2  0  0  0  0
 17 18  1  0  0  0  0
 19 20  1  0  0  0  0
 19 21  1  0  0  0  0
 21 22  1  0  0  0  0
 21 23  2  0  0  0  0
 23 24  1  0  0  0  0
 24 25  2  0  0  0  0
 24 26  2  0  0  0  0
 24 27  1  0  0  0  0
 27 28  1  0  0  0  0
 27 29  1  0  0  0  0
 27 30  1  0  0  0  0
 31 32  1  0  0  0  0
 31 33  1  0  0  0  0
 31 34  1  0  0  0  0
 34 35  1  0  0  0  0
 34 36  1  0  0  0  0
M  END
$$$$
