lig_CHEMBL3402761_1_21
 OpenBabel01042520433D

 63 67  0  0  0  0  0  0  0  0999 V2000
    3.6004   -1.7722   -1.3701 H   0  0  0  0  0  0  0  0  0  0  0  0
    3.4473   -1.0860   -0.5468 C   0  0  0  0  0  0  0  0  0  0  0  0
    2.6423   -1.3654    0.4784 C   0  0  0  0  0  0  0  0  0  0  0  0
    2.1210   -2.3095    0.5375 H   0  0  0  0  0  0  0  0  0  0  0  0
    2.5334   -0.3469    1.5463 C   0  0  0  0  0  0  0  0  0  0  0  0
    1.6009   -0.6341    2.6769 C   0  0  0  0  0  0  0  0  0  0  0  0
    1.8663   -0.0574    3.9266 C   0  0  0  0  0  0  0  0  0  0  0  0
    2.7318    0.5821    4.0784 H   0  0  0  0  0  0  0  0  0  0  0  0
    1.0164   -0.3070    5.0002 C   0  0  0  0  0  0  0  0  0  0  0  0
    1.2485    0.1402    5.9642 H   0  0  0  0  0  0  0  0  0  0  0  0
   -0.1006   -1.1168    4.8592 C   0  0  0  0  0  0  0  0  0  0  0  0
   -0.7547   -1.3080    5.7017 H   0  0  0  0  0  0  0  0  0  0  0  0
   -0.3685   -1.6694    3.6158 C   0  0  0  0  0  0  0  0  0  0  0  0
   -1.5147   -2.5091    3.4330 C   0  0  0  0  0  0  0  0  0  0  0  0
   -2.4396   -3.1866    3.2719 N   0  0  0  0  0  0  0  0  0  0  0  0
    0.4620   -1.4336    2.5223 C   0  0  0  0  0  0  0  0  0  0  0  0
    0.1804   -1.8668    1.5686 H   0  0  0  0  0  0  0  0  0  0  0  0
    3.2156    0.7573    1.5635 N   0  0  0  0  0  0  0  0  0  0  0  0
    4.0590    1.0156    0.4996 N   0  0  0  0  0  0  0  0  0  0  0  0
    4.8527    2.2370    0.5786 C   0  0  0  0  0  0  0  0  0  0  0  0
    5.0013    2.6414   -0.4309 H   0  0  0  0  0  0  0  0  0  0  0  0
    4.2871    2.9945    1.1339 H   0  0  0  0  0  0  0  0  0  0  0  0
    6.1958    1.9951    1.2320 C   0  0  0  0  0  0  0  0  0  0  0  0
    7.2932    1.6195    0.4461 C   0  0  0  0  0  0  0  0  0  0  0  0
    7.1904    1.5199   -0.6329 H   0  0  0  0  0  0  0  0  0  0  0  0
    8.5229    1.3538    1.0383 C   0  0  0  0  0  0  0  0  0  0  0  0
    9.3710    1.0583    0.4256 H   0  0  0  0  0  0  0  0  0  0  0  0
    8.6702    1.4540    2.4219 C   0  0  0  0  0  0  0  0  0  0  0  0
    9.6484    1.2334    2.8350 H   0  0  0  0  0  0  0  0  0  0  0  0
    7.5927    1.8192    3.2311 C   0  0  0  0  0  0  0  0  0  0  0  0
    7.7389    1.9114    4.6975 C   0  0  0  0  0  0  0  0  0  0  0  0
    8.9430    1.6055    5.2221 N   0  0  0  0  0  0  0  0  0  0  0  0
    9.0703    1.7213    6.5597 C   0  0  0  0  0  0  0  0  0  0  0  0
   10.0556    1.4524    6.9252 H   0  0  0  0  0  0  0  0  0  0  0  0
    8.0625    2.1458    7.3983 C   0  0  0  0  0  0  0  0  0  0  0  0
    8.1448    2.3525    8.7434 O   0  0  0  0  0  0  0  0  0  0  0  0
    9.4793    2.5816    9.2208 C   0  0  0  0  0  0  0  0  0  0  0  0
    9.9661    1.6089    9.3458 H   0  0  0  0  0  0  0  0  0  0  0  0
   10.0428    3.1898    8.5015 H   0  0  0  0  0  0  0  0  0  0  0  0
    9.4430    3.3483   10.5557 C   0  0  0  0  0  0  0  0  0  0  0  0
    8.8367    4.2481   10.3774 H   0  0  0  0  0  0  0  0  0  0  0  0
    8.9002    2.7694   11.3116 H   0  0  0  0  0  0  0  0  0  0  0  0
   10.7807    3.7658   11.0076 N   0  0  0  0  0  0  0  0  0  0  0  0
   11.6958    2.6583   11.3537 C   0  0  0  0  0  0  0  0  0  0  0  0
   12.7102    3.0774   11.3352 H   0  0  0  0  0  0  0  0  0  0  0  0
   11.6956    1.8752   10.5896 H   0  0  0  0  0  0  0  0  0  0  0  0
   11.4738    2.0295   12.7404 C   0  0  0  0  0  0  0  0  0  0  0  0
   10.5511    1.4401   12.7747 H   0  0  0  0  0  0  0  0  0  0  0  0
   12.3068    1.3542   12.9645 H   0  0  0  0  0  0  0  0  0  0  0  0
   11.4442    3.0152   13.7775 O   0  0  0  0  0  0  0  0  0  0  0  0
   10.4546    4.0131   13.5051 C   0  0  0  0  0  0  0  0  0  0  0  0
   10.5117    4.7548   14.3085 H   0  0  0  0  0  0  0  0  0  0  0  0
    9.4584    3.5584   13.5451 H   0  0  0  0  0  0  0  0  0  0  0  0
   10.7191    4.6975   12.1547 C   0  0  0  0  0  0  0  0  0  0  0  0
   11.6949    5.1977   12.2126 H   0  0  0  0  0  0  0  0  0  0  0  0
    9.9821    5.4889   11.9777 H   0  0  0  0  0  0  0  0  0  0  0  0
    6.8631    2.3891    6.7664 C   0  0  0  0  0  0  0  0  0  0  0  0
    5.9903    2.7030    7.3314 H   0  0  0  0  0  0  0  0  0  0  0  0
    6.6727    2.2912    5.4309 N   0  0  0  0  0  0  0  0  0  0  0  0
    6.3547    2.0899    2.6270 C   0  0  0  0  0  0  0  0  0  0  0  0
    5.4948    2.3635    3.2342 H   0  0  0  0  0  0  0  0  0  0  0  0
    4.2050    0.1786   -0.5976 C   0  0  0  0  0  0  0  0  0  0  0  0
    4.9111    0.4034   -1.5775 O   0  0  0  0  0  0  0  0  0  0  0  0
  1  2  1  0  0  0  0
  2  3  2  0  0  0  0
  2 62  1  0  0  0  0
  3  4  1  0  0  0  0
  3  5  1  0  0  0  0
  5  6  1  0  0  0  0
  5 18  2  0  0  0  0
  6  7  1  0  0  0  0
  6 16  2  0  0  0  0
  7  8  1  0  0  0  0
  7  9  2  0  0  0  0
  9 10  1  0  0  0  0
  9 11  1  0  0  0  0
 11 12  1  0  0  0  0
 11 13  2  0  0  0  0
 13 14  1  0  0  0  0
 13 16  1  0  0  0  0
 14 15  3  0  0  0  0
 16 17  1  0  0  0  0
 18 19  1  0  0  0  0
 19 20  1  0  0  0  0
 19 62  1  0  0  0  0
 20 21  1  0  0  0  0
 20 22  1  0  0  0  0
 20 23  1  0  0  0  0
 23 24  1  0  0  0  0
 23 60  2  0  0  0  0
 24 25  1  0  0  0  0
 24 26  2  0  0  0  0
 26 27  1  0  0  0  0
 26 28  1  0  0  0  0
 28 29  1  0  0  0  0
 28 30  2  0  0  0  0
 30 31  1  0  0  0  0
 30 60  1  0  0  0  0
 31 32  1  0  0  0  0
 31 59  2  0  0  0  0
 32 33  2  0  0  0  0
 33 34  1  0  0  0  0
 33 35  1  0  0  0  0
 35 36  1  0  0  0  0
 35 57  2  0  0  0  0
 36 37  1  0  0  0  0
 37 38  1  0  0  0  0
 37 39  1  0  0  0  0
 37 40  1  0  0  0  0
 40 41  1  0  0  0  0
 40 42  1  0  0  0  0
 40 43  1  0  0  0  0
 43 44  1  0  0  0  0
 43 54  1  0  0  0  0
 44 45  1  0  0  0  0
 44 46  1  0  0  0  0
 44 47  1  0  0  0  0
 47 48  1  0  0  0  0
 47 49  1  0  0  0  0
 47 50  1  0  0  0  0
 50 51  1  0  0  0  0
 51 52  1  0  0  0  0
 51 53  1  0  0  0  0
 51 54  1  0  0  0  0
 54 55  1  0  0  0  0
 54 56  1  0  0  0  0
 57 58  1  0  0  0  0
 57 59  1  0  0  0  0
 60 61  1  0  0  0  0
 62 63  2  0  0  0  0
M  END
$$$$
