lig_CHEMBL3402744_300_4
 OpenBabel01042520433D

 42 44  0  0  0  0  0  0  0  0999 V2000
    3.6004   -1.7722   -1.3701 H   0  0  0  0  0  0  0  0  0  0  0  0
    3.4473   -1.0860   -0.5468 C   0  0  0  0  0  0  0  0  0  0  0  0
    2.6423   -1.3654    0.4784 C   0  0  0  0  0  0  0  0  0  0  0  0
    2.1210   -2.3095    0.5375 H   0  0  0  0  0  0  0  0  0  0  0  0
    2.5334   -0.3469    1.5463 C   0  0  0  0  0  0  0  0  0  0  0  0
    1.6009   -0.6341    2.6769 C   0  0  0  0  0  0  0  0  0  0  0  0
    1.8663   -0.0574    3.9266 C   0  0  0  0  0  0  0  0  0  0  0  0
    2.7318    0.5821    4.0784 H   0  0  0  0  0  0  0  0  0  0  0  0
    1.0164   -0.3070    5.0002 C   0  0  0  0  0  0  0  0  0  0  0  0
    1.2837    0.2430    6.1915 F   0  0  0  0  0  0  0  0  0  0  0  0
   -0.1006   -1.1168    4.8592 C   0  0  0  0  0  0  0  0  0  0  0  0
   -0.7547   -1.3080    5.7017 H   0  0  0  0  0  0  0  0  0  0  0  0
   -0.3685   -1.6694    3.6158 C   0  0  0  0  0  0  0  0  0  0  0  0
   -1.4494   -2.4441    3.4585 F   0  0  0  0  0  0  0  0  0  0  0  0
    0.4620   -1.4336    2.5223 C   0  0  0  0  0  0  0  0  0  0  0  0
    0.1804   -1.8668    1.5686 H   0  0  0  0  0  0  0  0  0  0  0  0
    3.2156    0.7573    1.5635 N   0  0  0  0  0  0  0  0  0  0  0  0
    4.0590    1.0156    0.4996 N   0  0  0  0  0  0  0  0  0  0  0  0
    4.8527    2.2370    0.5786 C   0  0  0  0  0  0  0  0  0  0  0  0
    5.0013    2.6414   -0.4309 H   0  0  0  0  0  0  0  0  0  0  0  0
    4.2871    2.9945    1.1339 H   0  0  0  0  0  0  0  0  0  0  0  0
    6.1958    1.9951    1.2320 C   0  0  0  0  0  0  0  0  0  0  0  0
    7.2932    1.6195    0.4461 C   0  0  0  0  0  0  0  0  0  0  0  0
    7.1904    1.5199   -0.6329 H   0  0  0  0  0  0  0  0  0  0  0  0
    8.5229    1.3538    1.0383 C   0  0  0  0  0  0  0  0  0  0  0  0
    9.3710    1.0583    0.4256 H   0  0  0  0  0  0  0  0  0  0  0  0
    8.6702    1.4540    2.4219 C   0  0  0  0  0  0  0  0  0  0  0  0
    9.6484    1.2334    2.8350 H   0  0  0  0  0  0  0  0  0  0  0  0
    7.5927    1.8192    3.2311 C   0  0  0  0  0  0  0  0  0  0  0  0
    7.6828    1.9236    4.6326 N   0  0  0  0  0  0  0  0  0  0  0  0
    6.8606    2.2048    5.1464 H   0  0  0  0  0  0  0  0  0  0  0  0
    8.7719    1.6644    5.4198 C   0  0  0  0  0  0  0  0  0  0  0  0
    9.8836    1.2944    5.0695 O   0  0  0  0  0  0  0  0  0  0  0  0
    8.4328    1.8764    6.7225 O   0  0  0  0  0  0  0  0  0  0  0  0
    9.5036    1.6117    7.6326 C   0  0  0  0  0  0  0  0  0  0  0  0
    9.7924    0.5564    7.5848 H   0  0  0  0  0  0  0  0  0  0  0  0
   10.3621    2.2564    7.4169 H   0  0  0  0  0  0  0  0  0  0  0  0
    9.1558    1.8289    8.6458 H   0  0  0  0  0  0  0  0  0  0  0  0
    6.3547    2.0899    2.6270 C   0  0  0  0  0  0  0  0  0  0  0  0
    5.4948    2.3635    3.2342 H   0  0  0  0  0  0  0  0  0  0  0  0
    4.2050    0.1786   -0.5976 C   0  0  0  0  0  0  0  0  0  0  0  0
    4.9111    0.4034   -1.5775 O   0  0  0  0  0  0  0  0  0  0  0  0
  1  2  1  0  0  0  0
  2  3  2  0  0  0  0
  2 41  1  0  0  0  0
  3  4  1  0  0  0  0
  3  5  1  0  0  0  0
  5  6  1  0  0  0  0
  5 17  2  0  0  0  0
  6  7  1  0  0  0  0
  6 15  2  0  0  0  0
  7  8  1  0  0  0  0
  7  9  2  0  0  0  0
  9 10  1  0  0  0  0
  9 11  1  0  0  0  0
 11 12  1  0  0  0  0
 11 13  2  0  0  0  0
 13 14  1  0  0  0  0
 13 15  1  0  0  0  0
 15 16  1  0  0  0  0
 17 18  1  0  0  0  0
 18 19  1  0  0  0  0
 18 41  1  0  0  0  0
 19 20  1  0  0  0  0
 19 21  1  0  0  0  0
 19 22  1  0  0  0  0
 22 23  1  0  0  0  0
 22 39  2  0  0  0  0
 23 24  1  0  0  0  0
 23 25  2  0  0  0  0
 25 26  1  0  0  0  0
 25 27  1  0  0  0  0
 27 28  1  0  0  0  0
 27 29  2  0  0  0  0
 29 30  1  0  0  0  0
 29 39  1  0  0  0  0
 30 31  1  0  0  0  0
 30 32  1  0  0  0  0
 32 33  2  0  0  0  0
 32 34  1  0  0  0  0
 34 35  1  0  0  0  0
 35 36  1  0  0  0  0
 35 37  1  0  0  0  0
 35 38  1  0  0  0  0
 39 40  1  0  0  0  0
 41 42  2  0  0  0  0
M  END
$$$$
