lig_CHEMBL3402748_5300_8
 OpenBabel01042520433D

 44 47  0  0  0  0  0  0  0  0999 V2000
    9.3963    2.1325    7.4072 H   0  0  0  0  0  0  0  0  0  0  0  0
    8.6250    2.0034    6.6588 C   0  0  0  0  0  0  0  0  0  0  0  0
    7.2949    1.7146    6.8541 C   0  0  0  0  0  0  0  0  0  0  0  0
    6.4954    1.4646    8.0700 C   0  0  0  0  0  0  0  0  0  0  0  0
    5.6435    2.1496    8.1230 H   0  0  0  0  0  0  0  0  0  0  0  0
    6.1138    0.4383    8.0702 H   0  0  0  0  0  0  0  0  0  0  0  0
    7.0992    1.6006    8.9726 H   0  0  0  0  0  0  0  0  0  0  0  0
    6.7641    1.6726    5.5905 N   0  0  0  0  0  0  0  0  0  0  0  0
    5.8054    1.4636    5.3526 H   0  0  0  0  0  0  0  0  0  0  0  0
    7.7760    1.8871    4.6820 C   0  0  0  0  0  0  0  0  0  0  0  0
    7.5927    1.8192    3.2311 C   0  0  0  0  0  0  0  0  0  0  0  0
    8.6702    1.4540    2.4219 C   0  0  0  0  0  0  0  0  0  0  0  0
    9.6484    1.2334    2.8350 H   0  0  0  0  0  0  0  0  0  0  0  0
    8.5229    1.3538    1.0383 C   0  0  0  0  0  0  0  0  0  0  0  0
    9.3710    1.0583    0.4256 H   0  0  0  0  0  0  0  0  0  0  0  0
    7.2932    1.6195    0.4461 C   0  0  0  0  0  0  0  0  0  0  0  0
    7.1904    1.5199   -0.6329 H   0  0  0  0  0  0  0  0  0  0  0  0
    6.1958    1.9951    1.2320 C   0  0  0  0  0  0  0  0  0  0  0  0
    4.8527    2.2370    0.5786 C   0  0  0  0  0  0  0  0  0  0  0  0
    5.0013    2.6414   -0.4309 H   0  0  0  0  0  0  0  0  0  0  0  0
    4.2871    2.9945    1.1339 H   0  0  0  0  0  0  0  0  0  0  0  0
    4.0590    1.0156    0.4996 N   0  0  0  0  0  0  0  0  0  0  0  0
    3.2156    0.7573    1.5635 N   0  0  0  0  0  0  0  0  0  0  0  0
    2.5334   -0.3469    1.5463 C   0  0  0  0  0  0  0  0  0  0  0  0
    1.6009   -0.6341    2.6769 C   0  0  0  0  0  0  0  0  0  0  0  0
    1.8663   -0.0574    3.9266 C   0  0  0  0  0  0  0  0  0  0  0  0
    2.7318    0.5821    4.0784 H   0  0  0  0  0  0  0  0  0  0  0  0
    1.0164   -0.3070    5.0002 C   0  0  0  0  0  0  0  0  0  0  0  0
    1.2837    0.2430    6.1915 F   0  0  0  0  0  0  0  0  0  0  0  0
   -0.1006   -1.1168    4.8592 C   0  0  0  0  0  0  0  0  0  0  0  0
   -0.7547   -1.3080    5.7017 H   0  0  0  0  0  0  0  0  0  0  0  0
   -0.3685   -1.6694    3.6158 C   0  0  0  0  0  0  0  0  0  0  0  0
   -1.4494   -2.4441    3.4585 F   0  0  0  0  0  0  0  0  0  0  0  0
    0.4620   -1.4336    2.5223 C   0  0  0  0  0  0  0  0  0  0  0  0
    0.1804   -1.8668    1.5686 H   0  0  0  0  0  0  0  0  0  0  0  0
    2.6423   -1.3654    0.4784 C   0  0  0  0  0  0  0  0  0  0  0  0
    2.1210   -2.3095    0.5375 H   0  0  0  0  0  0  0  0  0  0  0  0
    3.4473   -1.0860   -0.5468 C   0  0  0  0  0  0  0  0  0  0  0  0
    3.6004   -1.7722   -1.3701 H   0  0  0  0  0  0  0  0  0  0  0  0
    4.2050    0.1786   -0.5976 C   0  0  0  0  0  0  0  0  0  0  0  0
    4.9111    0.4034   -1.5775 O   0  0  0  0  0  0  0  0  0  0  0  0
    6.3547    2.0899    2.6270 C   0  0  0  0  0  0  0  0  0  0  0  0
    5.4948    2.3635    3.2342 H   0  0  0  0  0  0  0  0  0  0  0  0
    8.9136    2.0922    5.3220 N   0  0  0  0  0  0  0  0  0  0  0  0
  1  2  1  0  0  0  0
  2  3  2  0  0  0  0
  2 44  1  0  0  0  0
  3  4  1  0  0  0  0
  3  8  1  0  0  0  0
  4  5  1  0  0  0  0
  4  6  1  0  0  0  0
  4  7  1  0  0  0  0
  8  9  1  0  0  0  0
  8 10  1  0  0  0  0
 10 11  1  0  0  0  0
 10 44  2  0  0  0  0
 11 12  1  0  0  0  0
 11 42  2  0  0  0  0
 12 13  1  0  0  0  0
 12 14  2  0  0  0  0
 14 15  1  0  0  0  0
 14 16  1  0  0  0  0
 16 17  1  0  0  0  0
 16 18  2  0  0  0  0
 18 19  1  0  0  0  0
 18 42  1  0  0  0  0
 19 20  1  0  0  0  0
 19 21  1  0  0  0  0
 19 22  1  0  0  0  0
 22 23  1  0  0  0  0
 22 40  1  0  0  0  0
 23 24  2  0  0  0  0
 24 25  1  0  0  0  0
 24 36  1  0  0  0  0
 25 26  1  0  0  0  0
 25 34  2  0  0  0  0
 26 27  1  0  0  0  0
 26 28  2  0  0  0  0
 28 29  1  0  0  0  0
 28 30  1  0  0  0  0
 30 31  1  0  0  0  0
 30 32  2  0  0  0  0
 32 33  1  0  0  0  0
 32 34  1  0  0  0  0
 34 35  1  0  0  0  0
 36 37  1  0  0  0  0
 36 38  2  0  0  0  0
 38 39  1  0  0  0  0
 38 40  1  0  0  0  0
 40 41  2  0  0  0  0
 42 43  1  0  0  0  0
M  END
$$$$
