lig_37
 OpenBabel01042516373D

 44 46  0  0  0  0  0  0  0  0999 V2000
   35.8011   -6.3613   26.5763 H   0  0  0  0  0  0  0  0  0  0  0  0
   35.2640   -6.5670   25.6490 C   0  0  0  0  0  0  0  0  0  0  0  0
   33.8760   -6.3910   25.5940 C   0  0  0  0  0  0  0  0  0  0  0  0
   33.2000   -6.6520   24.4030 C   0  0  0  0  0  0  0  0  0  0  0  0
   33.9060   -7.0990   23.2820 C   0  0  0  0  0  0  0  0  0  0  0  0
   35.2930   -7.2730   23.3370 C   0  0  0  0  0  0  0  0  0  0  0  0
   35.9700   -6.9980   24.5300 C   0  0  0  0  0  0  0  0  0  0  0  0
   37.0491   -7.1097   24.5914 H   0  0  0  0  0  0  0  0  0  0  0  0
   35.8850   -7.7330   22.1160 C   0  0  0  0  0  0  0  0  0  0  0  0
   34.9490   -7.9260   21.0750 C   0  0  0  0  0  0  0  0  0  0  0  0
   33.4350   -7.5210   21.7080 N   0  0  0  0  0  0  0  0  0  0  0  0
   32.5938   -7.5510   21.1485 H   0  0  0  0  0  0  0  0  0  0  0  0
   35.1360   -8.3560   19.6760 C   0  0  0  0  0  0  0  0  0  0  0  0
   36.1250   -9.1090   19.2880 O   0  0  0  0  0  0  0  0  0  0  0  0
   34.2970   -7.9760   18.8320 O   0  5  0  0  0  0  0  0  0  0  0  0
   37.3540   -7.9850   21.9650 C   0  0  0  0  0  0  0  0  0  0  0  0
   37.7087   -7.6103   20.9989 H   0  0  0  0  0  0  0  0  0  0  0  0
   37.9034   -7.3999   22.7067 H   0  0  0  0  0  0  0  0  0  0  0  0
   37.7720   -9.4280   22.1020 C   0  0  0  0  0  0  0  0  0  0  0  0
   37.0743  -10.0339   21.5113 H   0  0  0  0  0  0  0  0  0  0  0  0
   38.7573   -9.5521   21.6382 H   0  0  0  0  0  0  0  0  0  0  0  0
   37.8180  -10.0110   23.4810 C   0  0  0  0  0  0  0  0  0  0  0  0
   36.8083   -9.9344   23.8968 H   0  0  0  0  0  0  0  0  0  0  0  0
   38.1368  -11.0550   23.4117 H   0  0  0  0  0  0  0  0  0  0  0  0
   38.7270   -9.3140   24.2720 O   0  0  0  0  0  0  0  0  0  0  0  0
   38.9480   -9.6200   25.5900 C   0  0  0  0  0  0  0  0  0  0  0  0
   40.1030   -9.1420   26.1950 C   0  0  0  0  0  0  0  0  0  0  0  0
   40.3650   -9.4270   27.5360 C   0  0  0  0  0  0  0  0  0  0  0  0
   39.4690  -10.2020   28.2580 C   0  0  0  0  0  0  0  0  0  0  0  0
   38.3160  -10.6820   27.6350 C   0  0  0  0  0  0  0  0  0  0  0  0
   38.0490  -10.3940   26.3000 C   0  0  0  0  0  0  0  0  0  0  0  0
   37.1541  -10.7843   25.8242 H   0  0  0  0  0  0  0  0  0  0  0  0
   37.3460  -11.5050   28.4200 C   0  0  0  0  0  0  0  0  0  0  0  0
   37.8190  -12.4350   28.7495 H   0  0  0  0  0  0  0  0  0  0  0  0
   36.9807  -10.9416   29.2838 H   0  0  0  0  0  0  0  0  0  0  0  0
   36.4709  -11.7789   27.8194 H   0  0  0  0  0  0  0  0  0  0  0  0
   39.8070  -10.5650   29.9310 Cl  0  0  0  0  0  0  0  0  0  0  0  0
   41.5990   -8.9080   28.2060 C   0  0  0  0  0  0  0  0  0  0  0  0
   41.3285   -8.2542   29.0409 H   0  0  0  0  0  0  0  0  0  0  0  0
   42.2159   -9.7361   28.5690 H   0  0  0  0  0  0  0  0  0  0  0  0
   42.2147   -8.3204   27.5165 H   0  0  0  0  0  0  0  0  0  0  0  0
   40.8065   -8.5690   25.5951 H   0  0  0  0  0  0  0  0  0  0  0  0
   32.1288   -6.5049   24.3249 H   0  0  0  0  0  0  0  0  0  0  0  0
   33.3357   -6.0412   26.4728 H   0  0  0  0  0  0  0  0  0  0  0  0
  1  2  1  0  0  0  0
  2  3  1  0  0  0  0
  2  7  2  0  0  0  0
  3  4  2  0  0  0  0
  3 44  1  0  0  0  0
  4  5  1  0  0  0  0
  4 43  1  0  0  0  0
  5  6  2  0  0  0  0
  5 11  1  0  0  0  0
  6  7  1  0  0  0  0
  6  9  1  0  0  0  0
  7  8  1  0  0  0  0
  9 10  2  0  0  0  0
  9 16  1  0  0  0  0
 10 11  1  0  0  0  0
 10 13  1  0  0  0  0
 11 12  1  0  0  0  0
 13 14  2  0  0  0  0
 13 15  1  0  0  0  0
 16 17  1  0  0  0  0
 16 18  1  0  0  0  0
 16 19  1  0  0  0  0
 19 20  1  0  0  0  0
 19 21  1  0  0  0  0
 19 22  1  0  0  0  0
 22 23  1  0  0  0  0
 22 24  1  0  0  0  0
 22 25  1  0  0  0  0
 25 26  1  0  0  0  0
 26 27  1  0  0  0  0
 26 31  2  0  0  0  0
 27 28  2  0  0  0  0
 27 42  1  0  0  0  0
 28 29  1  0  0  0  0
 28 38  1  0  0  0  0
 29 30  2  0  0  0  0
 29 37  1  0  0  0  0
 30 31  1  0  0  0  0
 30 33  1  0  0  0  0
 31 32  1  0  0  0  0
 33 34  1  0  0  0  0
 33 35  1  0  0  0  0
 33 36  1  0  0  0  0
 38 39  1  0  0  0  0
 38 40  1  0  0  0  0
 38 41  1  0  0  0  0
M  CHG  1  15  -1
M  END
$$$$
