lig_33
 OpenBabel01042516373D

 38 40  0  0  0  0  0  0  0  0999 V2000
   35.7973   -6.3638   26.5723 H   0  0  0  0  0  0  0  0  0  0  0  0
   35.2640   -6.5670   25.6490 C   0  0  0  0  0  0  0  0  0  0  0  0
   33.8760   -6.3910   25.5940 C   0  0  0  0  0  0  0  0  0  0  0  0
   33.2000   -6.6520   24.4030 C   0  0  0  0  0  0  0  0  0  0  0  0
   33.9060   -7.0990   23.2820 C   0  0  0  0  0  0  0  0  0  0  0  0
   35.2930   -7.2730   23.3370 C   0  0  0  0  0  0  0  0  0  0  0  0
   35.9700   -6.9980   24.5300 C   0  0  0  0  0  0  0  0  0  0  0  0
   37.0479   -7.1145   24.5920 H   0  0  0  0  0  0  0  0  0  0  0  0
   35.8850   -7.7330   22.1160 C   0  0  0  0  0  0  0  0  0  0  0  0
   34.9490   -7.9260   21.0750 C   0  0  0  0  0  0  0  0  0  0  0  0
   33.4350   -7.5210   21.7080 N   0  0  0  0  0  0  0  0  0  0  0  0
   32.5929   -7.5592   21.1492 H   0  0  0  0  0  0  0  0  0  0  0  0
   35.1360   -8.3560   19.6760 C   0  0  0  0  0  0  0  0  0  0  0  0
   36.1250   -9.1090   19.2880 O   0  0  0  0  0  0  0  0  0  0  0  0
   34.2970   -7.9760   18.8320 O   0  5  0  0  0  0  0  0  0  0  0  0
   37.3540   -7.9850   21.9650 C   0  0  0  0  0  0  0  0  0  0  0  0
   37.7028   -7.6093   20.9958 H   0  0  0  0  0  0  0  0  0  0  0  0
   37.9043   -7.3948   22.7023 H   0  0  0  0  0  0  0  0  0  0  0  0
   37.7720   -9.4280   22.1020 C   0  0  0  0  0  0  0  0  0  0  0  0
   37.0695  -10.0316   21.5117 H   0  0  0  0  0  0  0  0  0  0  0  0
   38.7515   -9.5567   21.6311 H   0  0  0  0  0  0  0  0  0  0  0  0
   37.8180  -10.0110   23.4810 C   0  0  0  0  0  0  0  0  0  0  0  0
   36.8179   -9.9366   23.9233 H   0  0  0  0  0  0  0  0  0  0  0  0
   38.1403  -11.0541   23.4014 H   0  0  0  0  0  0  0  0  0  0  0  0
   38.7270   -9.3140   24.2720 O   0  0  0  0  0  0  0  0  0  0  0  0
   38.9480   -9.6200   25.5900 C   0  0  0  0  0  0  0  0  0  0  0  0
   40.1030   -9.1420   26.1950 C   0  0  0  0  0  0  0  0  0  0  0  0
   40.3650   -9.4270   27.5360 C   0  0  0  0  0  0  0  0  0  0  0  0
   39.4690  -10.2020   28.2580 C   0  0  0  0  0  0  0  0  0  0  0  0
   38.3160  -10.6820   27.6350 C   0  0  0  0  0  0  0  0  0  0  0  0
   38.0490  -10.3940   26.3000 C   0  0  0  0  0  0  0  0  0  0  0  0
   37.1398  -10.7613   25.8312 H   0  0  0  0  0  0  0  0  0  0  0  0
   37.5977  -11.2835   28.1828 H   0  0  0  0  0  0  0  0  0  0  0  0
   39.8070  -10.5650   29.9310 Cl  0  0  0  0  0  0  0  0  0  0  0  0
   41.2620   -9.0252   27.9968 H   0  0  0  0  0  0  0  0  0  0  0  0
   40.8160   -8.5270   25.6501 H   0  0  0  0  0  0  0  0  0  0  0  0
   32.1268   -6.5104   24.3253 H   0  0  0  0  0  0  0  0  0  0  0  0
   33.3381   -6.0549   26.4760 H   0  0  0  0  0  0  0  0  0  0  0  0
  1  2  1  0  0  0  0
  2  3  1  0  0  0  0
  2  7  2  0  0  0  0
  3  4  2  0  0  0  0
  3 38  1  0  0  0  0
  4  5  1  0  0  0  0
  4 37  1  0  0  0  0
  5  6  2  0  0  0  0
  5 11  1  0  0  0  0
  6  7  1  0  0  0  0
  6  9  1  0  0  0  0
  7  8  1  0  0  0  0
  9 10  2  0  0  0  0
  9 16  1  0  0  0  0
 10 11  1  0  0  0  0
 10 13  1  0  0  0  0
 11 12  1  0  0  0  0
 13 14  2  0  0  0  0
 13 15  1  0  0  0  0
 16 17  1  0  0  0  0
 16 18  1  0  0  0  0
 16 19  1  0  0  0  0
 19 20  1  0  0  0  0
 19 21  1  0  0  0  0
 19 22  1  0  0  0  0
 22 23  1  0  0  0  0
 22 24  1  0  0  0  0
 22 25  1  0  0  0  0
 25 26  1  0  0  0  0
 26 27  1  0  0  0  0
 26 31  2  0  0  0  0
 27 28  2  0  0  0  0
 27 36  1  0  0  0  0
 28 29  1  0  0  0  0
 28 35  1  0  0  0  0
 29 30  2  0  0  0  0
 29 34  1  0  0  0  0
 30 31  1  0  0  0  0
 30 33  1  0  0  0  0
 31 32  1  0  0  0  0
M  CHG  1  15  -1
M  END
$$$$
