lig_40
 OpenBabel01042516373D

 49 52  0  0  0  0  0  0  0  0999 V2000
   39.0869  -15.4688   31.4024 H   0  0  0  0  0  0  0  0  0  0  0  0
   38.7310  -14.6637   30.7616 C   0  0  0  0  0  0  0  0  0  0  0  0
   37.5502  -13.9935   31.0839 C   0  0  0  0  0  0  0  0  0  0  0  0
   37.1126  -12.9443   30.2728 C   0  0  0  0  0  0  0  0  0  0  0  0
   37.8480  -12.5644   29.1499 C   0  0  0  0  0  0  0  0  0  0  0  0
   39.0000  -13.2782   28.8048 C   0  0  0  0  0  0  0  0  0  0  0  0
   39.4521  -14.3131   29.6233 C   0  0  0  0  0  0  0  0  0  0  0  0
   40.3673  -14.8358   29.3700 H   0  0  0  0  0  0  0  0  0  0  0  0
   39.5674  -13.0246   27.9115 H   0  0  0  0  0  0  0  0  0  0  0  0
   37.3460  -11.5050   28.4200 O   0  0  0  0  0  0  0  0  0  0  0  0
   38.3160  -10.6820   27.6350 C   0  0  0  0  0  0  0  0  0  0  0  0
   39.4690  -10.2020   28.2580 C   0  0  0  0  0  0  0  0  0  0  0  0
   40.3650   -9.4270   27.5360 C   0  0  0  0  0  0  0  0  0  0  0  0
   40.1030   -9.1420   26.1950 C   0  0  0  0  0  0  0  0  0  0  0  0
   38.9480   -9.6200   25.5900 C   0  0  0  0  0  0  0  0  0  0  0  0
   38.0490  -10.3940   26.3000 C   0  0  0  0  0  0  0  0  0  0  0  0
   37.1717  -10.8164   25.8187 H   0  0  0  0  0  0  0  0  0  0  0  0
   38.7270   -9.3140   24.2720 O   0  0  0  0  0  0  0  0  0  0  0  0
   37.8180  -10.0110   23.4810 C   0  0  0  0  0  0  0  0  0  0  0  0
   38.1960  -11.0390   23.4212 H   0  0  0  0  0  0  0  0  0  0  0  0
   36.8548  -10.0862   23.9935 H   0  0  0  0  0  0  0  0  0  0  0  0
   37.7720   -9.4280   22.1020 C   0  0  0  0  0  0  0  0  0  0  0  0
   38.7526   -9.5400   21.6245 H   0  0  0  0  0  0  0  0  0  0  0  0
   37.0973  -10.0337   21.4839 H   0  0  0  0  0  0  0  0  0  0  0  0
   37.3540   -7.9850   21.9650 C   0  0  0  0  0  0  0  0  0  0  0  0
   37.9167   -7.3896   22.6884 H   0  0  0  0  0  0  0  0  0  0  0  0
   37.6759   -7.6585   20.9687 H   0  0  0  0  0  0  0  0  0  0  0  0
   35.8850   -7.7330   22.1160 C   0  0  0  0  0  0  0  0  0  0  0  0
   34.9490   -7.9260   21.0750 C   0  0  0  0  0  0  0  0  0  0  0  0
   33.4350   -7.5210   21.7080 N   0  0  0  0  0  0  0  0  0  0  0  0
   33.9060   -7.0990   23.2820 C   0  0  0  0  0  0  0  0  0  0  0  0
   35.2930   -7.2730   23.3370 C   0  0  0  0  0  0  0  0  0  0  0  0
   35.9700   -6.9980   24.5300 C   0  0  0  0  0  0  0  0  0  0  0  0
   35.2640   -6.5670   25.6490 C   0  0  0  0  0  0  0  0  0  0  0  0
   33.8760   -6.3910   25.5940 C   0  0  0  0  0  0  0  0  0  0  0  0
   33.2000   -6.6520   24.4030 C   0  0  0  0  0  0  0  0  0  0  0  0
   32.1208   -6.5681   24.3342 H   0  0  0  0  0  0  0  0  0  0  0  0
   33.3353   -6.0772   26.4825 H   0  0  0  0  0  0  0  0  0  0  0  0
   35.7942   -6.3782   26.5785 H   0  0  0  0  0  0  0  0  0  0  0  0
   37.0335   -7.2039   24.5994 H   0  0  0  0  0  0  0  0  0  0  0  0
   32.4975   -7.6706   21.3603 H   0  0  0  0  0  0  0  0  0  0  0  0
   35.1360   -8.3560   19.6760 C   0  0  0  0  0  0  0  0  0  0  0  0
   36.1250   -9.1090   19.2880 O   0  0  0  0  0  0  0  0  0  0  0  0
   34.2970   -7.9760   18.8320 O   0  5  0  0  0  0  0  0  0  0  0  0
   40.8493   -8.5683   25.6579 H   0  0  0  0  0  0  0  0  0  0  0  0
   41.2924   -9.0763   27.9909 H   0  0  0  0  0  0  0  0  0  0  0  0
   39.6977  -10.4613   29.2868 H   0  0  0  0  0  0  0  0  0  0  0  0
   36.1968  -12.4100   30.5192 H   0  0  0  0  0  0  0  0  0  0  0  0
   36.9844  -14.2702   31.9593 H   0  0  0  0  0  0  0  0  0  0  0  0
  1  2  1  0  0  0  0
  2  3  1  0  0  0  0
  2  7  2  0  0  0  0
  3  4  2  0  0  0  0
  3 49  1  0  0  0  0
  4  5  1  0  0  0  0
  4 48  1  0  0  0  0
  5  6  2  0  0  0  0
  5 10  1  0  0  0  0
  6  7  1  0  0  0  0
  6  9  1  0  0  0  0
  7  8  1  0  0  0  0
 10 11  1  0  0  0  0
 11 12  1  0  0  0  0
 11 16  2  0  0  0  0
 12 13  2  0  0  0  0
 12 47  1  0  0  0  0
 13 14  1  0  0  0  0
 13 46  1  0  0  0  0
 14 15  2  0  0  0  0
 14 45  1  0  0  0  0
 15 16  1  0  0  0  0
 15 18  1  0  0  0  0
 16 17  1  0  0  0  0
 18 19  1  0  0  0  0
 19 20  1  0  0  0  0
 19 21  1  0  0  0  0
 19 22  1  0  0  0  0
 22 23  1  0  0  0  0
 22 24  1  0  0  0  0
 22 25  1  0  0  0  0
 25 26  1  0  0  0  0
 25 27  1  0  0  0  0
 25 28  1  0  0  0  0
 28 29  2  0  0  0  0
 28 32  1  0  0  0  0
 29 30  1  0  0  0  0
 29 42  1  0  0  0  0
 30 31  1  0  0  0  0
 30 41  1  0  0  0  0
 31 32  1  0  0  0  0
 31 36  2  0  0  0  0
 32 33  2  0  0  0  0
 33 34  1  0  0  0  0
 33 40  1  0  0  0  0
 34 35  2  0  0  0  0
 34 39  1  0  0  0  0
 35 36  1  0  0  0  0
 35 38  1  0  0  0  0
 36 37  1  0  0  0  0
 42 43  2  0  0  0  0
 42 44  1  0  0  0  0
M  CHG  1  44  -1
M  END
$$$$
