lig_42
 OpenBabel01042516373D

 44 47  0  0  0  0  0  0  0  0999 V2000
   43.3873   -7.8605   28.0004 H   0  0  0  0  0  0  0  0  0  0  0  0
   42.4859   -8.2091   27.5079 C   0  0  0  0  0  0  0  0  0  0  0  0
   42.2595   -7.8989   26.1824 C   0  0  0  0  0  0  0  0  0  0  0  0
   41.0949   -8.3502   25.5519 C   0  0  0  0  0  0  0  0  0  0  0  0
   40.1030   -9.1420   26.1950 C   0  0  0  0  0  0  0  0  0  0  0  0
   40.3650   -9.4270   27.5360 C   0  0  0  0  0  0  0  0  0  0  0  0
   41.5437   -8.9684   28.1936 C   0  0  0  0  0  0  0  0  0  0  0  0
   41.7355   -9.2000   29.2383 H   0  0  0  0  0  0  0  0  0  0  0  0
   39.4690  -10.2020   28.2580 C   0  0  0  0  0  0  0  0  0  0  0  0
   38.3160  -10.6820   27.6350 C   0  0  0  0  0  0  0  0  0  0  0  0
   38.0490  -10.3940   26.3000 C   0  0  0  0  0  0  0  0  0  0  0  0
   38.9480   -9.6200   25.5900 C   0  0  0  0  0  0  0  0  0  0  0  0
   38.7270   -9.3140   24.2720 O   0  0  0  0  0  0  0  0  0  0  0  0
   37.8180  -10.0110   23.4810 C   0  0  0  0  0  0  0  0  0  0  0  0
   38.1558  -11.0470   23.3929 H   0  0  0  0  0  0  0  0  0  0  0  0
   36.8218   -9.9165   23.9210 H   0  0  0  0  0  0  0  0  0  0  0  0
   37.7720   -9.4280   22.1020 C   0  0  0  0  0  0  0  0  0  0  0  0
   38.7511   -9.5424   21.6201 H   0  0  0  0  0  0  0  0  0  0  0  0
   37.0704  -10.0112   21.4922 H   0  0  0  0  0  0  0  0  0  0  0  0
   37.3540   -7.9850   21.9650 C   0  0  0  0  0  0  0  0  0  0  0  0
   37.8836   -7.4126   22.7374 H   0  0  0  0  0  0  0  0  0  0  0  0
   37.7246   -7.5875   21.0146 H   0  0  0  0  0  0  0  0  0  0  0  0
   35.8850   -7.7330   22.1160 C   0  0  0  0  0  0  0  0  0  0  0  0
   34.9490   -7.9260   21.0750 C   0  0  0  0  0  0  0  0  0  0  0  0
   33.4350   -7.5210   21.7080 N   0  0  0  0  0  0  0  0  0  0  0  0
   33.9060   -7.0990   23.2820 C   0  0  0  0  0  0  0  0  0  0  0  0
   35.2930   -7.2730   23.3370 C   0  0  0  0  0  0  0  0  0  0  0  0
   35.9700   -6.9980   24.5300 C   0  0  0  0  0  0  0  0  0  0  0  0
   35.2640   -6.5670   25.6490 C   0  0  0  0  0  0  0  0  0  0  0  0
   33.8760   -6.3910   25.5940 C   0  0  0  0  0  0  0  0  0  0  0  0
   33.2000   -6.6520   24.4030 C   0  0  0  0  0  0  0  0  0  0  0  0
   32.1285   -6.5073   24.3205 H   0  0  0  0  0  0  0  0  0  0  0  0
   33.3402   -6.0518   26.4759 H   0  0  0  0  0  0  0  0  0  0  0  0
   35.7998   -6.3632   26.5714 H   0  0  0  0  0  0  0  0  0  0  0  0
   37.0478   -7.1092   24.5724 H   0  0  0  0  0  0  0  0  0  0  0  0
   32.5978   -7.5487   21.1395 H   0  0  0  0  0  0  0  0  0  0  0  0
   35.1360   -8.3560   19.6760 C   0  0  0  0  0  0  0  0  0  0  0  0
   36.1250   -9.1090   19.2880 O   0  0  0  0  0  0  0  0  0  0  0  0
   34.2970   -7.9760   18.8320 O   0  5  0  0  0  0  0  0  0  0  0  0
   37.1434  -10.7866   25.8415 H   0  0  0  0  0  0  0  0  0  0  0  0
   37.6268  -11.2895   28.2120 H   0  0  0  0  0  0  0  0  0  0  0  0
   39.6368  -10.4507   29.3029 H   0  0  0  0  0  0  0  0  0  0  0  0
   41.0106   -8.0328   24.5216 H   0  0  0  0  0  0  0  0  0  0  0  0
   42.9691   -7.3048   25.6080 H   0  0  0  0  0  0  0  0  0  0  0  0
  1  2  1  0  0  0  0
  2  3  1  0  0  0  0
  2  7  2  0  0  0  0
  3  4  2  0  0  0  0
  3 44  1  0  0  0  0
  4  5  1  0  0  0  0
  4 43  1  0  0  0  0
  5  6  1  0  0  0  0
  5 12  2  0  0  0  0
  6  7  1  0  0  0  0
  6  9  2  0  0  0  0
  7  8  1  0  0  0  0
  9 10  1  0  0  0  0
  9 42  1  0  0  0  0
 10 11  2  0  0  0  0
 10 41  1  0  0  0  0
 11 12  1  0  0  0  0
 11 40  1  0  0  0  0
 12 13  1  0  0  0  0
 13 14  1  0  0  0  0
 14 15  1  0  0  0  0
 14 16  1  0  0  0  0
 14 17  1  0  0  0  0
 17 18  1  0  0  0  0
 17 19  1  0  0  0  0
 17 20  1  0  0  0  0
 20 21  1  0  0  0  0
 20 22  1  0  0  0  0
 20 23  1  0  0  0  0
 23 24  2  0  0  0  0
 23 27  1  0  0  0  0
 24 25  1  0  0  0  0
 24 37  1  0  0  0  0
 25 26  1  0  0  0  0
 25 36  1  0  0  0  0
 26 27  1  0  0  0  0
 26 31  2  0  0  0  0
 27 28  2  0  0  0  0
 28 29  1  0  0  0  0
 28 35  1  0  0  0  0
 29 30  2  0  0  0  0
 29 34  1  0  0  0  0
 30 31  1  0  0  0  0
 30 33  1  0  0  0  0
 31 32  1  0  0  0  0
 37 38  2  0  0  0  0
 37 39  1  0  0  0  0
M  CHG  1  39  -1
M  END
$$$$
