lig_45
 OpenBabel01042516373D

 48 51  0  0  0  0  0  0  0  0999 V2000
   35.7984   -6.3653   26.5728 H   0  0  0  0  0  0  0  0  0  0  0  0
   35.2640   -6.5670   25.6490 C   0  0  0  0  0  0  0  0  0  0  0  0
   33.8760   -6.3910   25.5940 C   0  0  0  0  0  0  0  0  0  0  0  0
   33.2000   -6.6520   24.4030 C   0  0  0  0  0  0  0  0  0  0  0  0
   33.9060   -7.0990   23.2820 C   0  0  0  0  0  0  0  0  0  0  0  0
   35.2930   -7.2730   23.3370 C   0  0  0  0  0  0  0  0  0  0  0  0
   35.9700   -6.9980   24.5300 C   0  0  0  0  0  0  0  0  0  0  0  0
   37.0479   -7.1146   24.5757 H   0  0  0  0  0  0  0  0  0  0  0  0
   35.8850   -7.7330   22.1160 C   0  0  0  0  0  0  0  0  0  0  0  0
   34.9490   -7.9260   21.0750 C   0  0  0  0  0  0  0  0  0  0  0  0
   33.4350   -7.5210   21.7080 N   0  0  0  0  0  0  0  0  0  0  0  0
   32.5956   -7.5677   21.1439 H   0  0  0  0  0  0  0  0  0  0  0  0
   35.1360   -8.3560   19.6760 C   0  0  0  0  0  0  0  0  0  0  0  0
   36.1250   -9.1090   19.2880 O   0  0  0  0  0  0  0  0  0  0  0  0
   34.2970   -7.9760   18.8320 O   0  5  0  0  0  0  0  0  0  0  0  0
   37.3540   -7.9850   21.9650 C   0  0  0  0  0  0  0  0  0  0  0  0
   37.7172   -7.5886   21.0110 H   0  0  0  0  0  0  0  0  0  0  0  0
   37.8880   -7.4090   22.7321 H   0  0  0  0  0  0  0  0  0  0  0  0
   37.7720   -9.4280   22.1020 C   0  0  0  0  0  0  0  0  0  0  0  0
   37.0607  -10.0084   21.5008 H   0  0  0  0  0  0  0  0  0  0  0  0
   38.7451   -9.5459   21.6102 H   0  0  0  0  0  0  0  0  0  0  0  0
   37.8180  -10.0110   23.4810 C   0  0  0  0  0  0  0  0  0  0  0  0
   36.8318   -9.9457   23.9539 H   0  0  0  0  0  0  0  0  0  0  0  0
   38.1430  -11.0497   23.3816 H   0  0  0  0  0  0  0  0  0  0  0  0
   38.7270   -9.3140   24.2720 O   0  0  0  0  0  0  0  0  0  0  0  0
   38.9480   -9.6200   25.5900 C   0  0  0  0  0  0  0  0  0  0  0  0
   40.1030   -9.1420   26.1950 C   0  0  0  0  0  0  0  0  0  0  0  0
   40.3650   -9.4270   27.5360 C   0  0  0  0  0  0  0  0  0  0  0  0
   39.4690  -10.2020   28.2580 C   0  0  0  0  0  0  0  0  0  0  0  0
   38.3160  -10.6820   27.6350 C   0  0  0  0  0  0  0  0  0  0  0  0
   38.0490  -10.3940   26.3000 C   0  0  0  0  0  0  0  0  0  0  0  0
   36.7899  -10.9135   25.6422 C   0  0  0  0  0  0  0  0  0  0  0  0
   36.1440  -12.0384   26.3223 C   0  0  0  0  0  0  0  0  0  0  0  0
   36.0221  -11.7403   27.8100 C   0  0  0  0  0  0  0  0  0  0  0  0
   37.4080  -11.5881   28.4258 C   0  0  0  0  0  0  0  0  0  0  0  0
   37.3000  -11.2088   29.4486 H   0  0  0  0  0  0  0  0  0  0  0  0
   37.8869  -12.5754   28.4900 H   0  0  0  0  0  0  0  0  0  0  0  0
   35.4441  -10.8201   27.9581 H   0  0  0  0  0  0  0  0  0  0  0  0
   35.4826  -12.5469   28.3175 H   0  0  0  0  0  0  0  0  0  0  0  0
   36.7270  -12.9563   26.1801 H   0  0  0  0  0  0  0  0  0  0  0  0
   35.1515  -12.2198   25.8935 H   0  0  0  0  0  0  0  0  0  0  0  0
   37.0068  -11.2542   24.6228 H   0  0  0  0  0  0  0  0  0  0  0  0
   36.0766  -10.0831   25.5723 H   0  0  0  0  0  0  0  0  0  0  0  0
   39.6857  -10.4280   29.2989 H   0  0  0  0  0  0  0  0  0  0  0  0
   41.2702   -9.0495   28.0025 H   0  0  0  0  0  0  0  0  0  0  0  0
   40.8396   -8.5471   25.6614 H   0  0  0  0  0  0  0  0  0  0  0  0
   32.1280   -6.5108   24.3212 H   0  0  0  0  0  0  0  0  0  0  0  0
   33.3392   -6.0522   26.4762 H   0  0  0  0  0  0  0  0  0  0  0  0
  1  2  1  0  0  0  0
  2  3  1  0  0  0  0
  2  7  2  0  0  0  0
  3  4  2  0  0  0  0
  3 48  1  0  0  0  0
  4  5  1  0  0  0  0
  4 47  1  0  0  0  0
  5  6  2  0  0  0  0
  5 11  1  0  0  0  0
  6  7  1  0  0  0  0
  6  9  1  0  0  0  0
  7  8  1  0  0  0  0
  9 10  2  0  0  0  0
  9 16  1  0  0  0  0
 10 11  1  0  0  0  0
 10 13  1  0  0  0  0
 11 12  1  0  0  0  0
 13 14  2  0  0  0  0
 13 15  1  0  0  0  0
 16 17  1  0  0  0  0
 16 18  1  0  0  0  0
 16 19  1  0  0  0  0
 19 20  1  0  0  0  0
 19 21  1  0  0  0  0
 19 22  1  0  0  0  0
 22 23  1  0  0  0  0
 22 24  1  0  0  0  0
 22 25  1  0  0  0  0
 25 26  1  0  0  0  0
 26 27  1  0  0  0  0
 26 31  2  0  0  0  0
 27 28  2  0  0  0  0
 27 46  1  0  0  0  0
 28 29  1  0  0  0  0
 28 45  1  0  0  0  0
 29 30  2  0  0  0  0
 29 44  1  0  0  0  0
 30 31  1  0  0  0  0
 30 35  1  0  0  0  0
 31 32  1  0  0  0  0
 32 33  1  0  0  0  0
 32 42  1  0  0  0  0
 32 43  1  0  0  0  0
 33 34  1  0  0  0  0
 33 40  1  0  0  0  0
 33 41  1  0  0  0  0
 34 35  1  0  0  0  0
 34 38  1  0  0  0  0
 34 39  1  0  0  0  0
 35 36  1  0  0  0  0
 35 37  1  0  0  0  0
M  CHG  1  15  -1
M  END
$$$$
