lig_58
 OpenBabel01042516373D

 47 49  0  0  0  0  0  0  0  0999 V2000
   37.0470   -7.1113   24.6124 H   0  0  0  0  0  0  0  0  0  0  0  0
   35.9700   -6.9980   24.5300 C   0  0  0  0  0  0  0  0  0  0  0  0
   35.2640   -6.5670   25.6490 C   0  0  0  0  0  0  0  0  0  0  0  0
   33.8760   -6.3910   25.5940 C   0  0  0  0  0  0  0  0  0  0  0  0
   33.2000   -6.6520   24.4030 C   0  0  0  0  0  0  0  0  0  0  0  0
   33.9060   -7.0990   23.2820 C   0  0  0  0  0  0  0  0  0  0  0  0
   35.2930   -7.2730   23.3370 C   0  0  0  0  0  0  0  0  0  0  0  0
   35.8850   -7.7330   22.1160 C   0  0  0  0  0  0  0  0  0  0  0  0
   34.9490   -7.9260   21.0750 C   0  0  0  0  0  0  0  0  0  0  0  0
   33.4350   -7.5210   21.7080 N   0  0  0  0  0  0  0  0  0  0  0  0
   32.1550   -7.5105   21.0298 C   0  0  0  0  0  0  0  0  0  0  0  0
   31.4866   -8.1825   21.5748 H   0  0  0  0  0  0  0  0  0  0  0  0
   31.7619   -6.4885   21.0584 H   0  0  0  0  0  0  0  0  0  0  0  0
   32.2072   -7.8274   19.9947 H   0  0  0  0  0  0  0  0  0  0  0  0
   35.1360   -8.3560   19.6760 C   0  0  0  0  0  0  0  0  0  0  0  0
   36.1250   -9.1090   19.2880 O   0  0  0  0  0  0  0  0  0  0  0  0
   34.2970   -7.9760   18.8320 O   0  5  0  0  0  0  0  0  0  0  0  0
   37.3540   -7.9850   21.9650 C   0  0  0  0  0  0  0  0  0  0  0  0
   37.6997   -7.6165   20.9967 H   0  0  0  0  0  0  0  0  0  0  0  0
   37.9045   -7.3912   22.7018 H   0  0  0  0  0  0  0  0  0  0  0  0
   37.7720   -9.4280   22.1020 C   0  0  0  0  0  0  0  0  0  0  0  0
   37.0726  -10.0364   21.5142 H   0  0  0  0  0  0  0  0  0  0  0  0
   38.7571   -9.5498   21.6375 H   0  0  0  0  0  0  0  0  0  0  0  0
   37.8180  -10.0110   23.4810 C   0  0  0  0  0  0  0  0  0  0  0  0
   36.8166   -9.9351   23.9191 H   0  0  0  0  0  0  0  0  0  0  0  0
   38.1200  -11.0588   23.3855 H   0  0  0  0  0  0  0  0  0  0  0  0
   38.7270   -9.3140   24.2720 O   0  0  0  0  0  0  0  0  0  0  0  0
   38.9480   -9.6200   25.5900 C   0  0  0  0  0  0  0  0  0  0  0  0
   40.1030   -9.1420   26.1950 C   0  0  0  0  0  0  0  0  0  0  0  0
   40.3650   -9.4270   27.5360 C   0  0  0  0  0  0  0  0  0  0  0  0
   39.4690  -10.2020   28.2580 C   0  0  0  0  0  0  0  0  0  0  0  0
   38.3160  -10.6820   27.6350 C   0  0  0  0  0  0  0  0  0  0  0  0
   38.0490  -10.3940   26.3000 C   0  0  0  0  0  0  0  0  0  0  0  0
   37.1482  -10.7414   25.7978 H   0  0  0  0  0  0  0  0  0  0  0  0
   37.3460  -11.5050   28.4200 C   0  0  0  0  0  0  0  0  0  0  0  0
   36.3720  -11.0046   28.4508 H   0  0  0  0  0  0  0  0  0  0  0  0
   37.2249  -12.4844   27.9451 H   0  0  0  0  0  0  0  0  0  0  0  0
   37.6524  -11.6824   29.4529 H   0  0  0  0  0  0  0  0  0  0  0  0
   39.8070  -10.5650   29.9310 Cl  0  0  0  0  0  0  0  0  0  0  0  0
   41.5990   -8.9080   28.2060 C   0  0  0  0  0  0  0  0  0  0  0  0
   41.3334   -8.2635   29.0485 H   0  0  0  0  0  0  0  0  0  0  0  0
   42.2212   -9.7374   28.5499 H   0  0  0  0  0  0  0  0  0  0  0  0
   42.2076   -8.3071   27.5178 H   0  0  0  0  0  0  0  0  0  0  0  0
   40.7978   -8.5178   25.6329 H   0  0  0  0  0  0  0  0  0  0  0  0
   32.1255   -6.5137   24.3357 H   0  0  0  0  0  0  0  0  0  0  0  0
   33.0314   -5.8561   26.9995 Cl  0  0  0  0  0  0  0  0  0  0  0  0
   35.8088   -6.3695   26.5676 H   0  0  0  0  0  0  0  0  0  0  0  0
  1  2  1  0  0  0  0
  2  3  1  0  0  0  0
  2  7  2  0  0  0  0
  3  4  2  0  0  0  0
  3 47  1  0  0  0  0
  4  5  1  0  0  0  0
  4 46  1  0  0  0  0
  5  6  2  0  0  0  0
  5 45  1  0  0  0  0
  6  7  1  0  0  0  0
  6 10  1  0  0  0  0
  7  8  1  0  0  0  0
  8  9  2  0  0  0  0
  8 18  1  0  0  0  0
  9 10  1  0  0  0  0
  9 15  1  0  0  0  0
 10 11  1  0  0  0  0
 11 12  1  0  0  0  0
 11 13  1  0  0  0  0
 11 14  1  0  0  0  0
 15 16  2  0  0  0  0
 15 17  1  0  0  0  0
 18 19  1  0  0  0  0
 18 20  1  0  0  0  0
 18 21  1  0  0  0  0
 21 22  1  0  0  0  0
 21 23  1  0  0  0  0
 21 24  1  0  0  0  0
 24 25  1  0  0  0  0
 24 26  1  0  0  0  0
 24 27  1  0  0  0  0
 27 28  1  0  0  0  0
 28 29  1  0  0  0  0
 28 33  2  0  0  0  0
 29 30  2  0  0  0  0
 29 44  1  0  0  0  0
 30 31  1  0  0  0  0
 30 40  1  0  0  0  0
 31 32  2  0  0  0  0
 31 39  1  0  0  0  0
 32 33  1  0  0  0  0
 32 35  1  0  0  0  0
 33 34  1  0  0  0  0
 35 36  1  0  0  0  0
 35 37  1  0  0  0  0
 35 38  1  0  0  0  0
 40 41  1  0  0  0  0
 40 42  1  0  0  0  0
 40 43  1  0  0  0  0
M  CHG  1  17  -1
M  END
$$$$
