lig_62
 OpenBabel01042516373D

 43 46  0  0  0  0  0  0  0  0999 V2000
   43.3762   -7.8499   27.9631 H   0  0  0  0  0  0  0  0  0  0  0  0
   42.4722   -8.2008   27.4740 C   0  0  0  0  0  0  0  0  0  0  0  0
   42.2279   -7.8830   26.1485 C   0  0  0  0  0  0  0  0  0  0  0  0
   41.0571   -8.3303   25.5287 C   0  0  0  0  0  0  0  0  0  0  0  0
   40.1030   -9.1420   26.1950 C   0  0  0  0  0  0  0  0  0  0  0  0
   40.3650   -9.4270   27.5360 C   0  0  0  0  0  0  0  0  0  0  0  0
   41.5417   -8.9603   28.1784 C   0  0  0  0  0  0  0  0  0  0  0  0
   41.7397   -9.1819   29.2247 H   0  0  0  0  0  0  0  0  0  0  0  0
   39.4690  -10.2020   28.2580 C   0  0  0  0  0  0  0  0  0  0  0  0
   38.3160  -10.6820   27.6350 C   0  0  0  0  0  0  0  0  0  0  0  0
   38.0490  -10.3940   26.3000 C   0  0  0  0  0  0  0  0  0  0  0  0
   38.9480   -9.6200   25.5900 C   0  0  0  0  0  0  0  0  0  0  0  0
   38.7270   -9.3140   24.2720 O   0  0  0  0  0  0  0  0  0  0  0  0
   37.8180  -10.0110   23.4810 C   0  0  0  0  0  0  0  0  0  0  0  0
   38.1555  -11.0499   23.4049 H   0  0  0  0  0  0  0  0  0  0  0  0
   36.8045   -9.9790   23.8975 H   0  0  0  0  0  0  0  0  0  0  0  0
   37.7720   -9.4280   22.1020 C   0  0  0  0  0  0  0  0  0  0  0  0
   38.7664   -9.5320   21.6523 H   0  0  0  0  0  0  0  0  0  0  0  0
   37.0838  -10.0108   21.4790 H   0  0  0  0  0  0  0  0  0  0  0  0
   37.3540   -7.9850   21.9650 C   0  0  0  0  0  0  0  0  0  0  0  0
   37.9223   -7.3786   22.6733 H   0  0  0  0  0  0  0  0  0  0  0  0
   37.6944   -7.6003   20.9968 H   0  0  0  0  0  0  0  0  0  0  0  0
   35.8850   -7.7330   22.1160 C   0  0  0  0  0  0  0  0  0  0  0  0
   34.9490   -7.9260   21.0750 C   0  0  0  0  0  0  0  0  0  0  0  0
   33.4350   -7.5210   21.7080 S   0  0  0  0  0  0  0  0  0  0  0  0
   33.9060   -7.0990   23.2820 C   0  0  0  0  0  0  0  0  0  0  0  0
   35.2930   -7.2730   23.3370 C   0  0  0  0  0  0  0  0  0  0  0  0
   35.9700   -6.9980   24.5300 C   0  0  0  0  0  0  0  0  0  0  0  0
   35.2640   -6.5670   25.6490 C   0  0  0  0  0  0  0  0  0  0  0  0
   33.8760   -6.3910   25.5940 C   0  0  0  0  0  0  0  0  0  0  0  0
   33.2000   -6.6520   24.4030 C   0  0  0  0  0  0  0  0  0  0  0  0
   32.1250   -6.5041   24.3396 H   0  0  0  0  0  0  0  0  0  0  0  0
   33.3262   -6.0545   26.4685 H   0  0  0  0  0  0  0  0  0  0  0  0
   35.7952   -6.3677   26.5759 H   0  0  0  0  0  0  0  0  0  0  0  0
   37.6666   -7.1876   24.6931 Cl  0  0  0  0  0  0  0  0  0  0  0  0
   35.1360   -8.3560   19.6760 C   0  0  0  0  0  0  0  0  0  0  0  0
   36.1250   -9.1090   19.2880 O   0  0  0  0  0  0  0  0  0  0  0  0
   34.2970   -7.9760   18.8320 O   0  5  0  0  0  0  0  0  0  0  0  0
   37.1442  -10.7823   25.8359 H   0  0  0  0  0  0  0  0  0  0  0  0
   37.6199  -11.2843   28.2118 H   0  0  0  0  0  0  0  0  0  0  0  0
   39.6284  -10.4382   29.3089 H   0  0  0  0  0  0  0  0  0  0  0  0
   40.9040   -8.0146   24.5025 H   0  0  0  0  0  0  0  0  0  0  0  0
   42.9377   -7.2809   25.5867 H   0  0  0  0  0  0  0  0  0  0  0  0
  1  2  1  0  0  0  0
  2  3  1  0  0  0  0
  2  7  2  0  0  0  0
  3  4  2  0  0  0  0
  3 43  1  0  0  0  0
  4  5  1  0  0  0  0
  4 42  1  0  0  0  0
  5  6  1  0  0  0  0
  5 12  2  0  0  0  0
  6  7  1  0  0  0  0
  6  9  2  0  0  0  0
  7  8  1  0  0  0  0
  9 10  1  0  0  0  0
  9 41  1  0  0  0  0
 10 11  2  0  0  0  0
 10 40  1  0  0  0  0
 11 12  1  0  0  0  0
 11 39  1  0  0  0  0
 12 13  1  0  0  0  0
 13 14  1  0  0  0  0
 14 15  1  0  0  0  0
 14 16  1  0  0  0  0
 14 17  1  0  0  0  0
 17 18  1  0  0  0  0
 17 19  1  0  0  0  0
 17 20  1  0  0  0  0
 20 21  1  0  0  0  0
 20 22  1  0  0  0  0
 20 23  1  0  0  0  0
 23 24  2  0  0  0  0
 23 27  1  0  0  0  0
 24 25  1  0  0  0  0
 24 36  1  0  0  0  0
 25 26  1  0  0  0  0
 26 27  1  0  0  0  0
 26 31  2  0  0  0  0
 27 28  2  0  0  0  0
 28 29  1  0  0  0  0
 28 35  1  0  0  0  0
 29 30  2  0  0  0  0
 29 34  1  0  0  0  0
 30 31  1  0  0  0  0
 30 33  1  0  0  0  0
 31 32  1  0  0  0  0
 36 37  2  0  0  0  0
 36 38  1  0  0  0  0
M  CHG  1  38  -1
M  END
$$$$
