lig_23
 OpenBabel01042521443D

 38 40  0  0  1  0  0  0  0  0999 V2000
    2.3893   -0.6194   -0.1721 H   0  0  0  0  0  0  0  0  0  0  0  0
    1.7040    0.0528    0.0057 O   0  0  0  0  0  0  0  0  0  0  0  0
    2.2649    1.0993    0.7940 C   0  0  1  0  0  0  0  0  0  0  0  0
    1.8625    1.0517    1.8118 H   0  0  0  0  0  0  0  0  0  0  0  0
    3.7659    1.1049    0.8114 C   0  0  0  0  0  0  0  0  0  0  0  0
    4.2418    2.4333    0.7110 C   0  0  0  0  0  0  0  0  0  0  0  0
    5.6038    2.7146    0.8076 C   0  0  0  0  0  0  0  0  0  0  0  0
    6.2158    3.9430    0.7335 O   0  0  0  0  0  0  0  0  0  0  0  0
    5.6469    5.0644    1.2849 C   0  0  0  0  0  0  0  0  0  0  0  0
    4.8817    5.0816    2.4490 C   0  0  0  0  0  0  0  0  0  0  0  0
    4.7278    4.1935    3.0533 H   0  0  0  0  0  0  0  0  0  0  0  0
    4.2666    6.2676    2.8416 C   0  0  0  0  0  0  0  0  0  0  0  0
    3.4312    6.2565    3.8887 F   0  0  0  0  0  0  0  0  0  0  0  0
    4.4752    7.4550    2.1516 C   0  0  0  0  0  0  0  0  0  0  0  0
    3.9834    8.3684    2.4633 H   0  0  0  0  0  0  0  0  0  0  0  0
    5.3342    7.4529    1.0591 C   0  0  0  0  0  0  0  0  0  0  0  0
    5.5887    8.6032    0.4220 F   0  0  0  0  0  0  0  0  0  0  0  0
    5.9189    6.2645    0.6214 C   0  0  0  0  0  0  0  0  0  0  0  0
    6.5771    6.2771   -0.2416 H   0  0  0  0  0  0  0  0  0  0  0  0
    6.4910    1.6339    0.9044 C   0  0  0  0  0  0  0  0  0  0  0  0
    7.5666    1.7977    0.8972 H   0  0  0  0  0  0  0  0  0  0  0  0
    6.0255    0.3125    0.9943 C   0  0  0  0  0  0  0  0  0  0  0  0
    6.7773   -0.4672    1.0747 H   0  0  0  0  0  0  0  0  0  0  0  0
    4.6512    0.0404    0.9737 C   0  0  0  0  0  0  0  0  0  0  0  0
    4.0984   -1.6090    1.4015 S   0  0  0  0  0  0  0  0  0  0  0  0
    5.2980   -2.3454    1.7712 O   0  0  0  0  0  0  0  0  0  0  0  0
    3.0552   -1.4254    2.4046 O   0  0  0  0  0  0  0  0  0  0  0  0
    3.4006   -2.3419   -0.0876 C   0  0  0  0  0  0  0  0  0  0  0  0
    2.3697   -2.0065   -0.1929 H   0  0  0  0  0  0  0  0  0  0  0  0
    4.0826   -2.0012   -1.2198 F   0  0  0  0  0  0  0  0  0  0  0  0
    3.4151   -3.7096   -0.0402 F   0  0  0  0  0  0  0  0  0  0  0  0
    3.0832    3.3824    0.5671 C   0  0  0  0  0  0  0  0  0  0  0  0
    3.2998    4.1600   -0.1720 H   0  0  0  0  0  0  0  0  0  0  0  0
    2.8638    3.8491    1.5342 H   0  0  0  0  0  0  0  0  0  0  0  0
    1.9555    2.4507    0.1463 C   0  0  1  0  0  0  0  0  0  0  0  0
    0.9913    2.8467    0.4878 H   0  0  0  0  0  0  0  0  0  0  0  0
    1.9015    2.3726   -1.2835 O   0  0  0  0  0  0  0  0  0  0  0  0
    1.9219    1.4113   -1.4841 H   0  0  0  0  0  0  0  0  0  0  0  0
  1  2  1  0  0  0  0
  3  5  1  0  0  0  0
  3 35  1  0  0  0  0
  3  4  1  1  0  0  0
  3  2  1  0  0  0  0
  5  6  2  0  0  0  0
  5 24  1  0  0  0  0
  6  7  1  0  0  0  0
  6 32  1  0  0  0  0
  7  8  1  0  0  0  0
  7 20  2  0  0  0  0
  8  9  1  0  0  0  0
  9 10  2  0  0  0  0
  9 18  1  0  0  0  0
 10 11  1  0  0  0  0
 10 12  1  0  0  0  0
 12 13  1  0  0  0  0
 12 14  2  0  0  0  0
 14 15  1  0  0  0  0
 14 16  1  0  0  0  0
 16 17  1  0  0  0  0
 16 18  2  0  0  0  0
 18 19  1  0  0  0  0
 20 21  1  0  0  0  0
 20 22  1  0  0  0  0
 22 23  1  0  0  0  0
 22 24  2  0  0  0  0
 24 25  1  0  0  0  0
 25 26  2  0  0  0  0
 25 27  2  0  0  0  0
 25 28  1  0  0  0  0
 28 29  1  0  0  0  0
 28 30  1  0  0  0  0
 28 31  1  0  0  0  0
 32 33  1  0  0  0  0
 32 34  1  0  0  0  0
 32 35  1  0  0  0  0
 35 37  1  0  0  0  0
 35 36  1  1  0  0  0
 37 38  1  0  0  0  0
M  END
$$$$
