lig_7b
 OpenBabel01042521443D

 40 42  0  0  1  0  0  0  0  0999 V2000
    1.4564    0.1754    2.2991 H   0  0  0  0  0  0  0  0  0  0  0  0
    1.7606    1.0850    2.1171 O   0  0  0  0  0  0  0  0  0  0  0  0
    2.2649    1.0993    0.7940 C   0  0  2  0  0  0  0  0  0  0  0  0
    1.8450    0.2726    0.2137 H   0  0  0  0  0  0  0  0  0  0  0  0
    3.7659    1.1049    0.8114 C   0  0  0  0  0  0  0  0  0  0  0  0
    4.2418    2.4333    0.7110 C   0  0  0  0  0  0  0  0  0  0  0  0
    5.6038    2.7146    0.8076 C   0  0  0  0  0  0  0  0  0  0  0  0
    6.2158    3.9430    0.7335 O   0  0  0  0  0  0  0  0  0  0  0  0
    5.6469    5.0644    1.2849 C   0  0  0  0  0  0  0  0  0  0  0  0
    4.8817    5.0816    2.4490 C   0  0  0  0  0  0  0  0  0  0  0  0
    4.7188    4.1923    3.0484 H   0  0  0  0  0  0  0  0  0  0  0  0
    4.2666    6.2676    2.8416 C   0  0  0  0  0  0  0  0  0  0  0  0
    3.4312    6.2565    3.8887 F   0  0  0  0  0  0  0  0  0  0  0  0
    4.4752    7.4550    2.1516 C   0  0  0  0  0  0  0  0  0  0  0  0
    3.9717    8.3577    2.4758 H   0  0  0  0  0  0  0  0  0  0  0  0
    5.3342    7.4529    1.0591 C   0  0  0  0  0  0  0  0  0  0  0  0
    5.6642    8.9231    0.2291 Cl  0  0  0  0  0  0  0  0  0  0  0  0
    5.9189    6.2645    0.6214 C   0  0  0  0  0  0  0  0  0  0  0  0
    6.5766    6.2641   -0.2455 H   0  0  0  0  0  0  0  0  0  0  0  0
    6.4910    1.6339    0.9044 C   0  0  0  0  0  0  0  0  0  0  0  0
    7.5667    1.7970    0.8923 H   0  0  0  0  0  0  0  0  0  0  0  0
    6.0255    0.3125    0.9943 C   0  0  0  0  0  0  0  0  0  0  0  0
    6.7784   -0.4648    1.0814 H   0  0  0  0  0  0  0  0  0  0  0  0
    4.6512    0.0404    0.9737 C   0  0  0  0  0  0  0  0  0  0  0  0
    4.0984   -1.6090    1.4015 S   0  0  0  0  0  0  0  0  0  0  0  0
    5.2980   -2.3454    1.7712 O   0  0  0  0  0  0  0  0  0  0  0  0
    3.0552   -1.4254    2.4046 O   0  0  0  0  0  0  0  0  0  0  0  0
    3.4006   -2.3419   -0.0876 C   0  0  0  0  0  0  0  0  0  0  0  0
    2.3654   -2.0097   -0.1961 H   0  0  0  0  0  0  0  0  0  0  0  0
    4.0826   -2.0012   -1.2198 F   0  0  0  0  0  0  0  0  0  0  0  0
    3.4151   -3.7096   -0.0402 F   0  0  0  0  0  0  0  0  0  0  0  0
    3.0832    3.3824    0.5671 C   0  0  1  0  0  0  0  0  0  0  0  0
    2.8614    3.8133    1.5516 H   0  0  0  0  0  0  0  0  0  0  0  0
    3.2794    4.4994   -0.4527 C   0  0  0  0  0  0  0  0  0  0  0  0
    3.6814    4.1158   -1.3973 H   0  0  0  0  0  0  0  0  0  0  0  0
    2.3254    4.9956   -0.6679 H   0  0  0  0  0  0  0  0  0  0  0  0
    3.9674    5.2652   -0.0836 H   0  0  0  0  0  0  0  0  0  0  0  0
    1.9555    2.4507    0.1463 C   0  0  0  0  0  0  0  0  0  0  0  0
    1.9123    2.3249   -0.9415 H   0  0  0  0  0  0  0  0  0  0  0  0
    0.9769    2.8388    0.4577 H   0  0  0  0  0  0  0  0  0  0  0  0
  1  2  1  0  0  0  0
  2  3  1  0  0  0  0
  3  4  1  6  0  0  0
  3  5  1  0  0  0  0
  3 38  1  0  0  0  0
  5  6  2  0  0  0  0
  5 24  1  0  0  0  0
  6  7  1  0  0  0  0
  6 32  1  0  0  0  0
  7  8  1  0  0  0  0
  7 20  2  0  0  0  0
  8  9  1  0  0  0  0
  9 10  2  0  0  0  0
  9 18  1  0  0  0  0
 10 11  1  0  0  0  0
 10 12  1  0  0  0  0
 12 13  1  0  0  0  0
 12 14  2  0  0  0  0
 14 15  1  0  0  0  0
 14 16  1  0  0  0  0
 16 17  1  0  0  0  0
 16 18  2  0  0  0  0
 18 19  1  0  0  0  0
 20 21  1  0  0  0  0
 20 22  1  0  0  0  0
 22 23  1  0  0  0  0
 22 24  2  0  0  0  0
 24 25  1  0  0  0  0
 25 26  2  0  0  0  0
 25 27  2  0  0  0  0
 25 28  1  0  0  0  0
 28 29  1  0  0  0  0
 28 30  1  0  0  0  0
 28 31  1  0  0  0  0
 32 38  1  0  0  0  0
 32 34  1  0  0  0  0
 32 33  1  1  0  0  0
 34 35  1  0  0  0  0
 34 36  1  0  0  0  0
 34 37  1  0  0  0  0
 38 39  1  0  0  0  0
 38 40  1  0  0  0  0
M  END
$$$$
