lig_30
 OpenBabel01042521443D

 31 32  0  0  0  0  0  0  0  0999 V2000
    3.9697    8.3576    2.4853 H   0  0  0  0  0  0  0  0  0  0  0  0
    4.4752    7.4550    2.1516 C   0  0  0  0  0  0  0  0  0  0  0  0
    4.2666    6.2676    2.8416 C   0  0  0  0  0  0  0  0  0  0  0  0
    3.4312    6.2565    3.8887 F   0  0  0  0  0  0  0  0  0  0  0  0
    4.8817    5.0816    2.4490 C   0  0  0  0  0  0  0  0  0  0  0  0
    4.7524    4.1865    3.0500 H   0  0  0  0  0  0  0  0  0  0  0  0
    5.6469    5.0644    1.2849 C   0  0  0  0  0  0  0  0  0  0  0  0
    6.2158    3.9430    0.7335 O   0  0  0  0  0  0  0  0  0  0  0  0
    5.6038    2.7146    0.8076 C   0  0  0  0  0  0  0  0  0  0  0  0
    6.4910    1.6339    0.9044 C   0  0  0  0  0  0  0  0  0  0  0  0
    7.5646    1.8086    0.9296 H   0  0  0  0  0  0  0  0  0  0  0  0
    6.0255    0.3125    0.9943 C   0  0  0  0  0  0  0  0  0  0  0  0
    6.7772   -0.4656    1.0842 H   0  0  0  0  0  0  0  0  0  0  0  0
    4.6512    0.0404    0.9737 C   0  0  0  0  0  0  0  0  0  0  0  0
    4.0984   -1.6090    1.4015 S   0  0  0  0  0  0  0  0  0  0  0  0
    5.2980   -2.3454    1.7712 O   0  0  0  0  0  0  0  0  0  0  0  0
    3.0552   -1.4254    2.4046 O   0  0  0  0  0  0  0  0  0  0  0  0
    3.4006   -2.3419   -0.0876 C   0  0  0  0  0  0  0  0  0  0  0  0
    2.3664   -2.0068   -0.1913 H   0  0  0  0  0  0  0  0  0  0  0  0
    4.0826   -2.0012   -1.2198 F   0  0  0  0  0  0  0  0  0  0  0  0
    3.4151   -3.7096   -0.0402 F   0  0  0  0  0  0  0  0  0  0  0  0
    3.7659    1.1049    0.8114 C   0  0  0  0  0  0  0  0  0  0  0  0
    2.0493    0.8518    0.7222 Cl  0  0  0  0  0  0  0  0  0  0  0  0
    4.2418    2.4333    0.7110 C   0  0  0  0  0  0  0  0  0  0  0  0
    3.0832    3.3824    0.5671 C   0  0  0  0  0  0  0  0  0  0  0  0
    2.1977    4.1195    0.4383 N   0  0  0  0  0  0  0  0  0  0  0  0
    5.9189    6.2645    0.6214 C   0  0  0  0  0  0  0  0  0  0  0  0
    6.5745    6.2844   -0.2472 H   0  0  0  0  0  0  0  0  0  0  0  0
    5.3342    7.4529    1.0591 C   0  0  0  0  0  0  0  0  0  0  0  0
    5.6197    8.6748    0.3629 C   0  0  0  0  0  0  0  0  0  0  0  0
    5.8405    9.6569   -0.2139 N   0  0  0  0  0  0  0  0  0  0  0  0
  1  2  1  0  0  0  0
  2  3  2  0  0  0  0
  2 29  1  0  0  0  0
  3  4  1  0  0  0  0
  3  5  1  0  0  0  0
  5  6  1  0  0  0  0
  5  7  2  0  0  0  0
  7  8  1  0  0  0  0
  7 27  1  0  0  0  0
  8  9  1  0  0  0  0
  9 10  2  0  0  0  0
  9 24  1  0  0  0  0
 10 11  1  0  0  0  0
 10 12  1  0  0  0  0
 12 13  1  0  0  0  0
 12 14  2  0  0  0  0
 14 15  1  0  0  0  0
 14 22  1  0  0  0  0
 15 16  2  0  0  0  0
 15 17  2  0  0  0  0
 15 18  1  0  0  0  0
 18 19  1  0  0  0  0
 18 20  1  0  0  0  0
 18 21  1  0  0  0  0
 22 23  1  0  0  0  0
 22 24  2  0  0  0  0
 24 25  1  0  0  0  0
 25 26  3  0  0  0  0
 27 28  1  0  0  0  0
 27 29  2  0  0  0  0
 29 30  1  0  0  0  0
 30 31  3  0  0  0  0
M  END
$$$$
