lig_84
 OpenBabel01042521443D

 33 35  0  0  0  0  0  0  0  0999 V2000
    3.9621    8.3569    2.4685 H   0  0  0  0  0  0  0  0  0  0  0  0
    4.4752    7.4550    2.1516 C   0  0  0  0  0  0  0  0  0  0  0  0
    4.2666    6.2676    2.8416 C   0  0  0  0  0  0  0  0  0  0  0  0
    3.4312    6.2565    3.8887 F   0  0  0  0  0  0  0  0  0  0  0  0
    4.8817    5.0816    2.4490 C   0  0  0  0  0  0  0  0  0  0  0  0
    4.7649    4.2036    3.0758 H   0  0  0  0  0  0  0  0  0  0  0  0
    5.6469    5.0644    1.2849 C   0  0  0  0  0  0  0  0  0  0  0  0
    6.2158    3.9430    0.7335 O   0  0  0  0  0  0  0  0  0  0  0  0
    5.6038    2.7146    0.8076 C   0  0  0  0  0  0  0  0  0  0  0  0
    6.4910    1.6339    0.9044 C   0  0  0  0  0  0  0  0  0  0  0  0
    7.5660    1.7974    0.9483 H   0  0  0  0  0  0  0  0  0  0  0  0
    6.0255    0.3125    0.9943 C   0  0  0  0  0  0  0  0  0  0  0  0
    6.7584   -0.4847    1.1057 H   0  0  0  0  0  0  0  0  0  0  0  0
    4.6512    0.0404    0.9737 C   0  0  0  0  0  0  0  0  0  0  0  0
    4.0984   -1.6090    1.4015 S   0  0  0  0  0  0  0  0  0  0  0  0
    5.2980   -2.3454    1.7712 O   0  0  0  0  0  0  0  0  0  0  0  0
    3.0552   -1.4254    2.4046 O   0  0  0  0  0  0  0  0  0  0  0  0
    3.4006   -2.3419   -0.0876 C   0  0  0  0  0  0  0  0  0  0  0  0
    2.3643   -2.0079   -0.1810 H   0  0  0  0  0  0  0  0  0  0  0  0
    4.0826   -2.0012   -1.2198 F   0  0  0  0  0  0  0  0  0  0  0  0
    3.4151   -3.7096   -0.0402 F   0  0  0  0  0  0  0  0  0  0  0  0
    3.7659    1.1049    0.8114 C   0  0  0  0  0  0  0  0  0  0  0  0
    4.2418    2.4333    0.7110 C   0  0  0  0  0  0  0  0  0  0  0  0
    3.0832    3.3824    0.5671 C   0  0  0  0  0  0  0  0  0  0  0  0
    3.1237    4.5867    0.4261 O   0  0  0  0  0  0  0  0  0  0  0  0
    1.9263    2.4928    0.6388 O   0  0  0  0  0  0  0  0  0  0  0  0
    2.2649    1.0993    0.7940 C   0  0  0  0  0  0  0  0  0  0  0  0
    1.8342    0.7461    1.7344 H   0  0  0  0  0  0  0  0  0  0  0  0
    1.8578    0.5535   -0.0615 H   0  0  0  0  0  0  0  0  0  0  0  0
    5.9189    6.2645    0.6214 C   0  0  0  0  0  0  0  0  0  0  0  0
    6.5944    6.2645   -0.2306 H   0  0  0  0  0  0  0  0  0  0  0  0
    5.3342    7.4529    1.0591 C   0  0  0  0  0  0  0  0  0  0  0  0
    5.6642    8.9231    0.2291 Cl  0  0  0  0  0  0  0  0  0  0  0  0
  1  2  1  0  0  0  0
  2  3  2  0  0  0  0
  2 32  1  0  0  0  0
  3  4  1  0  0  0  0
  3  5  1  0  0  0  0
  5  6  1  0  0  0  0
  5  7  2  0  0  0  0
  7  8  1  0  0  0  0
  7 30  1  0  0  0  0
  8  9  1  0  0  0  0
  9 10  2  0  0  0  0
  9 23  1  0  0  0  0
 10 11  1  0  0  0  0
 10 12  1  0  0  0  0
 12 13  1  0  0  0  0
 12 14  2  0  0  0  0
 14 15  1  0  0  0  0
 14 22  1  0  0  0  0
 15 16  2  0  0  0  0
 15 17  2  0  0  0  0
 15 18  1  0  0  0  0
 18 19  1  0  0  0  0
 18 20  1  0  0  0  0
 18 21  1  0  0  0  0
 22 23  2  0  0  0  0
 22 27  1  0  0  0  0
 23 24  1  0  0  0  0
 24 25  2  0  0  0  0
 24 26  1  0  0  0  0
 26 27  1  0  0  0  0
 27 28  1  0  0  0  0
 27 29  1  0  0  0  0
 30 31  1  0  0  0  0
 30 32  2  0  0  0  0
 32 33  1  0  0  0  0
M  END
$$$$
